# freq=raman b3lyp/6-31+g(2d,p) geom=connectivity

450 9644/9644.com

0 1
 O                 10.46300000    8.11200000   11.68600000
 C                 11.36600000    7.95900000   12.79000000
 C                 11.13700000    9.31700000   13.43400000
 O                 11.45000000   10.46400000   12.63100000
 H                 10.97000000   10.14600000   11.81500000
 C                 11.87100000    9.34500000   14.76400000
 O                 11.75100000   10.60400000   15.44400000
 H                 12.28800000   11.34200000   15.03500000
 C                 10.65200000    5.48000000   13.40100000
 O                 10.04300000    4.58400000   14.34300000
 H                 10.27900000    3.66600000   14.02500000
 C                 10.96400000    6.90900000   13.81300000
 O                 11.84700000    6.98900000   14.94200000
 C                 11.43700000    8.17700000   15.63400000
 O                 12.22100000    8.26700000   16.83300000
 C                 11.46700000    8.37900000   18.04900000
 C                 10.92100000    7.08100000   18.62100000
 O                 10.13000000    6.34100000   17.67900000
 H                 10.56300000    6.36000000   16.77800000
 C                 10.13200000    7.47300000   19.85900000
 O                  9.14200000    6.52000000   20.27400000
 H                  8.51900000    6.40500000   19.50100000
 C                 12.82600000   10.30400000   18.73900000
 O                 13.57100000   10.73100000   19.88800000
 H                 14.55600000   10.56200000   19.90800000
 C                 12.32700000    8.93500000   19.17200000
 O                 11.68200000    9.05900000   20.44800000
 C                 11.12700000    7.83400000   20.94900000
 O                 10.53600000    8.17500000   22.21100000
 H                 10.96480842    8.22434664   10.87534191
 H                 11.57163061    5.03254234   13.08641904
 H                 10.00798987    5.52919315   12.54792850
 H                 10.02806438    7.26825105   14.18698289
 H                 12.37890612    7.84144401   12.46580594
 H                 10.09216628    9.37766252   13.65658158
 H                 12.90996898    9.20536490   14.54965100
 H                 10.38590696    8.18876701   15.83391239
 H                 13.46102401   10.22415981   17.88152111
 H                 12.00664056   10.96541656   18.54905726
 H                 13.17454265    8.29262574   19.29001169
 H                 10.64914413    9.04819950   17.88111970
 H                 11.74572329    6.47004643   18.92343551
 H                  9.60448835    8.37127744   19.61460462
 H                 11.22890693    8.34831988   22.85243604
 H                 11.88079179    7.08234631   21.05723433

 1 2 1.0 30 1.0
 2 3 1.0 12 1.0 34 1.0
 3 4 1.0 6 1.0 35 1.0
 4 5 1.0
 5
 6 7 1.0 14 1.0 36 1.0
 7 8 1.0
 8
 9 10 1.0 12 1.0 31 1.0 32 1.0
 10 11 1.0
 11
 12 13 1.0 33 1.0
 13 14 1.0
 14 15 1.0 37 1.0
 15 16 1.0
 16 17 1.0 26 1.0 41 1.0
 17 18 1.0 20 1.0 42 1.0
 18 19 1.0
 19
 20 21 1.0 28 1.0 43 1.0
 21 22 1.0
 22
 23 24 1.0 26 1.0 38 1.0 39 1.0
 24 25 1.0
 25
 26 27 1.0 40 1.0
 27 28 1.0
 28 29 1.0 45 1.0
 29 44 1.0
 30
 31
 32
 33
 34
 35
 36
 37
 38
 39
 40
 41
 42
 43
 44
 45

