# freq=raman b3lyp/6-31+g(2d,p) geom=connectivity

450 6523/6523.com

0 1
O          10.35400         7.88700        11.48700
C          11.21100         8.00700        12.63300
C          11.35200         9.40500        13.21200
O          11.92900        10.24300        12.20000
H          11.55300        10.17400        11.27600
C          12.06600         9.41500        14.55400
O          12.39200        10.62300        15.25700
H          12.85400        11.30200        14.68600
C          10.63400         5.62800        13.29600
O          10.02100         4.77600        14.27500
H           9.73200         3.93400        13.82000
C          10.80800         7.06600        13.75600
O          11.63100         7.05900        14.93200
C          11.43200         8.37700        15.46500
O          12.12600         8.27000        16.71600
C          11.33200         8.48200        17.89200
C          10.67800         7.19000        18.35400
O           9.64700         6.71600        17.47600
H          10.07600         6.33600        16.65700
C          10.05100         7.28300        19.73500
O           9.26900         6.16600        20.18200
H           8.50100         6.08400        19.54700
C          12.36600        10.54000        18.75400
O          13.47900        11.18600        19.38800
H          14.31900        10.66500        19.23600
C          12.20300         9.04900        19.00100
O          11.63800         9.01500        20.31900
C          11.04100         7.79100        20.77100
O          10.51500         8.27100        22.01700

