# freq=raman b3lyp/6-31+g(2d,p) geom=connectivity

450 6523/6523.com

0 1
 O                 10.35400000    7.88700000   11.48700000
 C                 11.21100000    8.00700000   12.63300000
 C                 11.35200000    9.40500000   13.21200000
 O                 11.92900000   10.24300000   12.20000000
 H                 11.55300000   10.17400000   11.27600000
 C                 12.06600000    9.41500000   14.55400000
 O                 12.39200000   10.62300000   15.25700000
 H                 12.85400000   11.30200000   14.68600000
 C                 10.63400000    5.62800000   13.29600000
 O                 10.02100000    4.77600000   14.27500000
 H                  9.73200000    3.93400000   13.82000000
 C                 10.80800000    7.06600000   13.75600000
 O                 11.63100000    7.05900000   14.93200000
 C                 11.43200000    8.37700000   15.46500000
 O                 12.12600000    8.27000000   16.71600000
 C                 11.33200000    8.48200000   17.89200000
 C                 10.67800000    7.19000000   18.35400000
 O                  9.64700000    6.71600000   17.47600000
 H                 10.07600000    6.33600000   16.65700000
 C                 10.05100000    7.28300000   19.73500000
 O                  9.26900000    6.16600000   20.18200000
 H                  8.50100000    6.08400000   19.54700000
 C                 12.36600000   10.54000000   18.75400000
 O                 13.47900000   11.18600000   19.38800000
 H                 14.31900000   10.66500000   19.23600000
 C                 12.20300000    9.04900000   19.00100000
 O                 11.63800000    9.01500000   20.31900000
 C                 11.04100000    7.79100000   20.77100000
 O                 10.51500000    8.27100000   22.01700000
 H                 10.88927779    7.80400688   10.69441573
 H                 11.59661402    5.22938563   13.05231815
 H                 10.02884901    5.62341364   12.41357649
 H                  9.84121881    7.39403225   14.07635757
 H                 12.18769002    7.70730665   12.31494262
 H                 10.36177548    9.76998738   13.38846419
 H                 13.02641333    9.00391176   14.32267187
 H                 10.39199315    8.57721251   15.61731780
 H                 11.23982620    8.49728086   22.60438739
 H                 11.79887314    7.05703047   20.94937329
 H                  9.33766389    8.07514196   19.64246511
 H                 11.44024026    6.44012355   18.39368743
 H                 10.56422730    9.19126928   17.66317220
 H                 13.16001010    8.57043258   18.99878605
 H                 11.47207344   11.02730701   19.08313095
 H                 12.45641224   10.69031368   17.69847576

 1 2 1.0 30 1.0
 2 3 1.0 12 1.0 34 1.0
 3 4 1.0 6 1.0 35 1.0
 4 5 1.0
 5
 6 7 1.0 14 1.0 36 1.0
 7 8 1.0
 8
 9 10 1.0 12 1.0 31 1.0 32 1.0
 10 11 1.0
 11
 12 13 1.0 33 1.0
 13 14 1.0
 14 15 1.0 37 1.0
 15 16 1.0
 16 17 1.0 26 1.0 42 1.0
 17 18 1.0 20 1.0 41 1.0
 18 19 1.0
 19
 20 21 1.0 28 1.0 40 1.0
 21 22 1.0
 22
 23 24 1.0 26 1.0 44 1.0 45 1.0
 24 25 1.0
 25
 26 27 1.0 43 1.0
 27 28 1.0
 28 29 1.0 39 1.0
 29 38 1.0
 30
 31
 32
 33
 34
 35
 36
 37
 38
 39
 40
 41
 42
 43
 44
 45

