# freq=raman b3lyp/6-31+g(d,p) geom=connectivity

350 8000.com

0 1
 O                  7.81800000    7.79600000   22.77500000
 C                  8.34300000    8.04000000   24.08800000
 C                  7.72400000    9.34400000   24.56500000
 O                  7.91000000   10.42500000   23.64000000
 H                  7.65500000   10.10800000   22.72600000
 C                  8.19200000    9.73000000   25.95900000
 O                  7.52700000   10.83900000   26.58000000
 H                  7.99100000   11.16000000   27.40600000
 C                  8.73900000    5.61300000   24.71200000
 O                  8.28600000    4.98700000   23.50200000
 H                  8.34100000    4.00900000   23.69900000
 C                  8.04600000    6.91800000   25.06900000
 O                  8.51900000    7.25400000   26.38100000
 C                  8.08200000    8.52700000   26.88100000
 O                  8.99300000    8.72900000   27.97100000
 C                  8.37300000    8.60000000   29.25900000
 C                  8.99500000    7.35500000   29.87100000
 O                  9.04900000    6.30300000   28.89700000
 H                  9.41800000    6.51200000   27.99200000
 C                  8.25900000    6.99800000   31.15300000
 O                  8.53300000    5.68100000   31.65100000
 H                  8.12800000    5.44800000   32.53600000
 C                  8.13200000   11.20500000   30.08200000
 O                  8.60300000   11.76400000   28.84700000
 H                  8.32500000   12.71200000   29.00400000
 C                  8.61400000    9.76800000   30.20000000
 O                  7.94700000    9.34600000   31.39900000
 C                  8.44000000    8.18500000   32.08400000
 O                  7.65800000    7.92000000   33.25700000
 H                  8.54326962    7.68108625   22.15663214
 H                  8.59453990    4.92547945   25.51906058
 H                  9.78725357    5.80556296   24.61721630
 H                  6.98908151    6.75562749   25.10719003
 H                  9.40331222    8.16560366   24.01827403
 H                  6.66942845    9.17547981   24.63118006
 H                  9.22896670    9.98338479   25.88554104
 H                  7.08269659    8.44622322   27.25485532
 H                  8.24232710    7.75215315   33.99995981
 H                  8.51276085   11.77789465   30.90158092
 H                  7.06232004   11.22542887   30.09835340
 H                  9.66452102    9.80151117   30.40045597
 H                  7.32061453    8.45067209   29.13617493
 H                 10.00287673    7.59619866   30.13728499
 H                  7.21981192    6.99015492   30.89819305
 H                  9.47176142    8.30822670   32.33931069

 1 2 1.0 30 1.0
 2 3 1.0 12 1.0 34 1.0
 3 4 1.0 6 1.0 35 1.0
 4 5 1.0
 5
 6 7 1.0 14 1.0 36 1.0
 7 8 1.0
 8
 9 10 1.0 12 1.0 31 1.0 32 1.0
 10 11 1.0
 11
 12 13 1.0 33 1.0
 13 14 1.0
 14 15 1.0 37 1.0
 15 16 1.0
 16 17 1.0 26 1.0 42 1.0
 17 18 1.0 20 1.0 43 1.0
 18 19 1.0
 19
 20 21 1.0 28 1.0 44 1.0
 21 22 1.0
 22
 23 24 1.0 26 1.0 39 1.0 40 1.0
 24 25 1.0
 25
 26 27 1.0 41 1.0
 27 28 1.0
 28 29 1.0 45 1.0
 29 38 1.0
 30
 31
 32
 33
 34
 35
 36
 37
 38
 39
 40
 41
 42
 43
 44
 45

