# freq=raman b3lyp/6-31+g(2d,p) geom=connectivity

423 6571/6571.com

0 1
 O                  7.78700000    7.83700000   12.19000000
 C                  8.43200000    8.07200000   13.45000000
 C                  7.82900000    9.37600000   13.94500000
 O                  7.93300000   10.49500000   13.05300000
 H                  7.91600000   10.08700000   12.14000000
 C                  8.28500000    9.82300000   15.32400000
 O                  7.67900000   11.00400000   15.86900000
 H                  8.04500000   11.05100000   16.79900000
 C                  8.67300000    5.62100000   14.20700000
 O                  8.44100000    4.96100000   12.95400000
 H                  8.70000000    3.99800000   13.02700000
 C                  8.13200000    7.01200000   14.49700000
 O                  8.60700000    7.47000000   15.77200000
 C                  8.06500000    8.68600000   16.30800000
 O                  8.70900000    9.00000000   17.55200000
 C                  8.10400000    8.57500000   18.78100000
 C                  8.77500000    7.33700000   19.35500000
 O                  8.64600000    6.25700000   18.41900000
 H                  8.76300000    6.61700000   17.49400000
 C                  8.29500000    6.82500000   20.70300000
 O                  9.05600000    5.75500000   21.28200000
 H                  8.77200000    5.56500000   22.22100000
 C                  7.48500000   10.88500000   19.46400000
 O                  7.92000000   11.71900000   18.38000000
 H                  7.78400000   12.68800000   18.58800000
 C                  8.28500000    9.64900000   19.84200000
 O                  7.69800000    9.22200000   21.08000000
 C                  8.27700000    8.03000000   21.63000000
 O                  7.48900000    7.87100000   22.81900000
 H                  8.06979003    7.76968400   23.57663976
 H                  9.28454548    8.24570021   21.91848835
 H                  7.28780827    6.48360655   20.58503670
 H                  9.81766714    7.55712097   19.45139500
 H                  7.06187849    8.38651090   18.62817783
 H                  9.31953923    9.88896437   19.97255909
 H                  7.42833391   11.50338949   20.33536869
 H                  6.49173435   10.56033794   19.23396113
 H                  8.45165088    7.70999522   11.50903819
 H                  8.28953085    4.97634970   14.97007104
 H                  9.73391077    5.67004488   14.33724186
 H                  7.06747037    6.92812829   14.56513365
 H                  9.48828203    8.17737309   13.31559467
 H                  6.78093954    9.18201732   14.03902128
 H                  9.33843035   10.00211933   15.26831552
 H                  7.01548440    8.56148883   16.47507474

 1 2 1.0 38 1.0
 2 3 1.0 12 1.0 42 1.0
 3 4 1.0 6 1.0 43 1.0
 4 5 1.0
 5
 6 7 1.0 14 1.0 44 1.0
 7 8 1.0
 8
 9 10 1.0 12 1.0 39 1.0 40 1.0
 10 11 1.0
 11
 12 13 1.0 41 1.0
 13 14 1.0
 14 15 1.0 45 1.0
 15 16 1.0
 16 17 1.0 26 1.0 34 1.0
 17 18 1.0 20 1.0 33 1.0
 18 19 1.0
 19
 20 21 1.0 28 1.0 32 1.0
 21 22 1.0
 22
 23 24 1.0 26 1.0 36 1.0 37 1.0
 24 25 1.0
 25
 26 27 1.0 35 1.0
 27 28 1.0
 28 29 1.0 31 1.0
 29 30 1.0
 30
 31
 32
 33
 34
 35
 36
 37
 38
 39
 40
 41
 42
 43
 44
 45

