# freq=raman b3lyp/6-31+g(2d,p) geom=connectivity

423 6571/6571.com

0 1
O           7.78700         7.83700        12.19000
C           8.43200         8.07200        13.45000
C           7.82900         9.37600        13.94500
O           7.93300        10.49500        13.05300
H           7.91600        10.08700        12.14000
C           8.28500         9.82300        15.32400
O           7.67900        11.00400        15.86900
H           8.04500        11.05100        16.79900
C           8.67300         5.62100        14.20700
O           8.44100         4.96100        12.95400
H           8.70000         3.99800        13.02700
C           8.13200         7.01200        14.49700
O           8.60700         7.47000        15.77200
C           8.06500         8.68600        16.30800
O           8.70900         9.00000        17.55200
C           8.10400         8.57500        18.78100
C           8.77500         7.33700        19.35500
O           8.64600         6.25700        18.41900
H           8.76300         6.61700        17.49400
C           8.29500         6.82500        20.70300
O           9.05600         5.75500        21.28200
H           8.77200         5.56500        22.22100
C           7.48500        10.88500        19.46400
O           7.92000        11.71900        18.38000
H           7.78400        12.68800        18.58800
C           8.28500         9.64900        19.84200
O           7.69800         9.22200        21.08000
C           8.27700         8.03000        21.63000
O           7.48900         7.87100        22.81900

