# freq=raman b3lyp/6-31+g(2d,p) geom=connectivity

290 9086/9086.com

0 1
O           7.80000         7.48800        12.27300
C           8.43600         7.82200        13.51600
C           7.95000         9.15800        14.05300
O           8.19700        10.14700        13.04200
H           7.77100         9.84000        12.19000
C           8.43800         9.60600        15.42100
O           7.68100        10.71200        15.93200
H           8.08500        11.03500        16.78800
C           8.67800         5.44100        14.24000
O           8.22500         4.74300        13.07100
H           8.20400         3.78600        13.35800
C           8.12700         6.81000        14.60700
O           8.79400         7.18900        15.81900
C           8.31100         8.42400        16.36900
O           8.90000         8.68500        17.65100
C           8.32800         8.22300        18.88400
C           8.90900         6.90500        19.37100
O           9.08300         5.93100        18.33200
H           9.53200         6.45200        17.60600
C           8.27000         6.55600        20.70600
O           8.68100         5.24600        21.12100
H           8.57600         5.29300        22.11500
C           7.98100        10.65400        19.59200
O           8.45100        11.39700        18.45800
H           8.38800        12.35700        18.73000
C           8.60900         9.30700        19.91100
O           8.24800         8.88300        21.23400
C           8.63200         7.60000        21.75000
O           7.83800         7.40200        22.92900

