# freq=raman b3lyp/6-31+g(d,p) geom=connectivity

320 10000.com

0 1
O           8.00800         7.57400        12.20500
C           8.51200         7.99300        13.48200
C           7.82200         9.22000        14.05600
O           7.74600        10.33100        13.15100
H           7.36500         9.83300        12.37200
C           8.39100         9.63400        15.40300
O           7.73500        10.80000        15.92100
H           8.14700        10.94000        16.82100
C           8.62100         5.55000        14.32500
O           8.15300         4.81600        13.18400
H           8.20200         3.82000        13.25500
C           8.04400         6.94800        14.48100
O           8.61500         7.27200        15.75700
C           8.22200         8.49600        16.39600
O           9.07200         8.74700        17.52500
C           8.45400         8.40300        18.77300
C           8.89700         7.05100        19.30800
O           8.72000         6.00600        18.34000
H           8.99200         6.42900        17.47600
C           8.19700         6.69400        20.60900
O           8.77300         5.44400        21.01700
H           8.28800         5.12400        21.83100
C           8.44800        10.84800        19.73400
O           8.40400        11.47400        18.44300
H           8.25700        12.45400        18.57900
C           8.85100         9.38800        19.86000
O           8.27900         9.11300        21.14700
C           8.57200         7.78300        21.60000
O           7.71200         7.59000        22.73200

