# freq=raman b3lyp/6-31+g(d,p) geom=connectivity

320 6000.com

0 1
O           7.75400         7.44400        12.33200
C           8.33900         7.76200        13.60400
C           7.75500         9.09100        14.05300
O           8.06400        10.08900        13.06800
H           7.91800         9.69100        12.16200
C           8.29700         9.49800        15.41400
O           7.68900        10.69900        15.91200
H           8.11900        10.92800        16.78600
C           8.04000         5.32100        14.22600
O           7.63000         4.64900        13.02600
H           7.39600         3.70000        13.23600
C           7.92600         6.76800        14.67700
O           8.48900         7.07900        15.95900
C           8.07800         8.37600        16.41600
O           8.87300         8.80100        17.53200
C           8.41400         8.40600        18.83300
C           8.87500         7.02200        19.26100
O           8.49000         5.90600        18.44500
H           8.59200         6.28100        17.52300
C           8.39200         6.65400        20.65400
O           9.22300         5.58500        21.12900
H           8.85600         5.30700        22.01700
C           8.21300        10.77800        19.69100
O           8.34900        11.52600        18.47400
H           8.18300        12.49400        18.66200
C           8.78200         9.39000        19.93100
O           8.21400         9.05800        21.20600
C           8.63600         7.76500        21.66200
O           7.84000         7.56500        22.83900

