# freq=raman b3lyp/6-31+g(d,p) geom=connectivity

320 6000.com

0 1
 O                  7.75400000    7.44400000   12.33200000
 C                  8.33900000    7.76200000   13.60400000
 C                  7.75500000    9.09100000   14.05300000
 O                  8.06400000   10.08900000   13.06800000
 H                  7.91800000    9.69100000   12.16200000
 C                  8.29700000    9.49800000   15.41400000
 O                  7.68900000   10.69900000   15.91200000
 H                  8.11900000   10.92800000   16.78600000
 C                  8.04000000    5.32100000   14.22600000
 O                  7.63000000    4.64900000   13.02600000
 H                  7.39600000    3.70000000   13.23600000
 C                  7.92600000    6.76800000   14.67700000
 O                  8.48900000    7.07900000   15.95900000
 C                  8.07800000    8.37600000   16.41600000
 O                  8.87300000    8.80100000   17.53200000
 C                  8.41400000    8.40600000   18.83300000
 C                  8.87500000    7.02200000   19.26100000
 O                  8.49000000    5.90600000   18.44500000
 H                  8.59200000    6.28100000   17.52300000
 C                  8.39200000    6.65400000   20.65400000
 O                  9.22300000    5.58500000   21.12900000
 H                  8.85600000    5.30700000   22.01700000
 C                  8.21300000   10.77800000   19.69100000
 O                  8.34900000   11.52600000   18.47400000
 H                  8.18300000   12.49400000   18.66200000
 C                  8.78200000    9.39000000   19.93100000
 O                  8.21400000    9.05800000   21.20600000
 C                  8.63600000    7.76500000   21.66200000
 O                  7.84000000    7.56500000   22.83900000
 H                  8.41554371    7.43628564   23.59648403
 H                  9.67244188    7.79425774   21.92625784
 H                  7.36231872    6.36327881   20.64226778
 H                  9.94448708    7.04159089   19.28771290
 H                  7.34539447    8.37697778   18.78674062
 H                  9.84685783    9.44918784   20.01745576
 H                  8.61504774   11.39862490   20.46435784
 H                  7.16141204   10.70042864   19.87278409
 H                  8.45017012    7.28367915   11.69071661
 H                  9.08812345    5.11519388   14.28909575
 H                  7.55527230    4.77114594   15.00548674
 H                  6.87509974    6.92610343   14.80154696
 H                  9.40476009    7.82148200   13.52972125
 H                  6.69168078    8.99349955   14.12189055
 H                  9.34948624    9.66672828   15.32070751
 H                  7.04709539    8.34591336   16.70100962

 1 2 1.0 38 1.0
 2 3 1.0 12 1.0 42 1.0
 3 4 1.0 6 1.0 43 1.0
 4 5 1.0
 5
 6 7 1.0 14 1.0 44 1.0
 7 8 1.0
 8
 9 10 1.0 12 1.0 39 1.0 40 1.0
 10 11 1.0
 11
 12 13 1.0 41 1.0
 13 14 1.0
 14 15 1.0 45 1.0
 15 16 1.0
 16 17 1.0 26 1.0 34 1.0
 17 18 1.0 20 1.0 33 1.0
 18 19 1.0
 19
 20 21 1.0 28 1.0 32 1.0
 21 22 1.0
 22
 23 24 1.0 26 1.0 36 1.0 37 1.0
 24 25 1.0
 25
 26 27 1.0 35 1.0
 27 28 1.0
 28 29 1.0 31 1.0
 29 30 1.0
 30
 31
 32
 33
 34
 35
 36
 37
 38
 39
 40
 41
 42
 43
 44
 45

