# freq=raman b3lyp/6-31+g(d,p) geom=connectivity

320 8000.com

0 1
O           7.35500         7.61700        12.27000
C           8.00700         7.94500        13.50600
C           7.62400         9.32100        14.02500
O           7.84100        10.34000        13.03800
H           7.52200         9.91300        12.19200
C           8.22900         9.62900        15.38500
O           7.65800        10.79800        15.99100
H           7.90800        10.89200        16.95400
C           8.20300         5.55300        14.30400
O           7.91200         4.82400        13.10300
H           8.21500         3.93900        13.45600
C           7.73600         6.96200        14.63300
O           8.44400         7.28900        15.83800
C           7.97400         8.52400        16.39700
O           8.88200         8.62200        17.50400
C           8.23700         8.31800        18.74900
C           8.70400         6.98100        19.30000
O           8.66700         5.97700        18.27500
H           8.95100         6.38200        17.40600
C           8.12400         6.58600        20.64800
O           8.77100         5.40800        21.15100
H           8.56100         5.37000        22.12800
C           7.93100        10.72000        19.55400
O           8.32300        11.40800        18.35700
H           8.41800        12.35800        18.65300
C           8.52400         9.34700        19.82900
O           7.97000         9.01100        21.10900
C           8.52300         7.75600        21.53200
O           7.78000         7.41600        22.71200

