# freq=raman b3lyp/6-31+g(d,p) geom=connectivity

320 9000.com

0 1
O           7.70900         7.46200        12.27800
C           8.10100         7.94400        13.57200
C           7.64800         9.32400        14.01900
O           7.95900        10.36000        13.07600
H           7.79500        10.08200        12.13000
C           8.20800         9.73900        15.37000
O           7.68600        10.95700        15.91900
H           7.78800        11.07000        16.90800
C           8.47300         5.58400        14.25300
O           7.80400         4.76100        13.28700
H           7.69200         3.78500        13.47400
C           7.80700         6.89600        14.63300
O           8.48200         7.42200        15.78500
C           8.02400         8.63500        16.40000
O           8.92500         8.80000        17.50500
C           8.41900         8.50600        18.81500
C           8.94100         7.18000        19.34500
O           8.65300         6.14600        18.39300
H           8.82300         6.64800        17.54500
C           8.39000         6.74800        20.69400
O           9.05100         5.52900        21.06300
H           8.62100         5.16200        21.88800
C           8.02100        10.88700        19.55500
O           8.34300        11.54700        18.32200
H           7.92000        12.44400        18.44500
C           8.64000         9.54300        19.90400
O           7.98700         9.04600        21.08100
C           8.57500         7.88500        21.68500
O           7.81700         7.63700        22.87800

