# freq=raman b3lyp/6-31+g(2df,p) geom=connectivity

290 8000.com

0 1
 O                  7.53500000    7.65100000   12.24600000
 C                  8.08000000    7.93500000   13.54300000
 C                  7.46200000    9.24600000   14.00100000
 O                  7.44800000   10.31600000   13.04500000
 H                  7.42600000    9.99900000   12.09700000
 C                  8.02400000    9.60400000   15.36700000
 O                  7.47200000   10.78900000   15.95800000
 H                  7.68700000   10.92100000   16.92600000
 C                  8.30900000    5.56600000   14.13800000
 O                  7.78600000    4.82800000   13.02400000
 H                  8.12400000    3.89300000   13.13100000
 C                  7.71800000    6.89200000   14.58700000
 O                  8.24100000    7.17900000   15.89200000
 C                  7.75800000    8.45800000   16.32900000
 O                  8.42200000    8.74800000   17.56700000
 C                  7.89400000    8.30400000   18.82600000
 C                  8.50300000    6.98700000   19.27800000
 O                  8.44100000    5.90200000   18.34100000
 H                  8.40900000    6.32800000   17.43700000
 C                  7.87100000    6.65800000   20.62100000
 O                  8.31500000    5.44400000   21.24400000
 H                  8.06300000    5.31700000   22.20400000
 C                  7.76200000   10.65300000   19.52200000
 O                  8.10900000   11.51700000   18.43000000
 H                  7.75800000   12.44700000   18.54500000
 C                  8.38800000    9.30800000   19.85400000
 O                  7.78900000    8.97600000   21.11500000
 C                  8.22200000    7.71800000   21.65300000
 O                  7.54021668    7.45017392   22.88114523
 H                  8.25078920    7.51416382   11.62108267
 H                  9.14338749    8.03517150   13.47918215
 H                  6.43017945    9.02149130   14.17374895
 H                  9.08226057    9.73241000   15.27482934
 H                  6.70492314    8.39006659   16.50595811
 H                  6.65319566    6.80361553   14.64427047
 H                  8.26998161    4.91171774   14.98374954
 H                  6.82514248    8.25730088   18.80978886
 H                  9.54070174    7.17343550   19.46052921
 H                  9.45569491    9.35445310   19.90662774
 H                  7.88769369   11.24749298   20.40272651
 H                  6.71683965   10.45615713   19.40455753
 H                  9.27930820    7.73404153   21.81652993
 H                  8.18325442    7.29829757   23.57759051
 H                  6.80786819    6.62177470   20.50550762
 H                  9.34211388    5.74749008   13.92672516

 1 2 1.0 30 1.0
 2 3 1.0 12 1.0 31 1.0
 3 4 1.0 6 1.0 32 1.0
 4 5 1.0
 5
 6 7 1.0 14 1.0 33 1.0
 7 8 1.0
 8
 9 10 1.0 12 1.0 36 1.0 45 1.0
 10 11 1.0
 11
 12 13 1.0 35 1.0
 13 14 1.0
 14 15 1.0 34 1.0
 15 16 1.0
 16 17 1.0 26 1.0 37 1.0
 17 18 1.0 20 1.0 38 1.0
 18 19 1.0
 19
 20 21 1.0 28 1.0 44 1.0
 21 22 1.0
 22
 23 24 1.0 26 1.0 40 1.0 41 1.0
 24 25 1.0
 25
 26 27 1.0 39 1.0
 27 28 1.0
 28 29 1.0 42 1.0
 29 43 1.0
 30
 31
 32
 33
 34
 35
 36
 37
 38
 39
 40
 41
 42
 43
 44
 45

