# freq=raman b3lyp/6-31+g(2d,p) geom=connectivity

483 7000/7000.com

0 1
O           7.55300         7.84400        12.24900
C           8.13800         8.18700        13.51300
C           7.45000         9.43400        14.04500
O           7.59700        10.48400        13.07800
H           7.35900        10.09600        12.18800
C           7.74600         9.88000        15.46800
O           7.04300        10.97000        16.08400
H           7.56200        11.22900        16.89800
C           8.36500         5.73000        14.02200
O           8.23300         4.93500        12.83500
H           8.22100         3.94800        12.99500
C           7.73500         7.05000        14.43700
O           8.22400         7.47400        15.71700
C           7.61400         8.62700        16.31700
O           8.46100         8.82400        17.45800
C           7.82000         8.55600        18.71300
C           8.31700         7.18200        19.13300
O           7.85300         6.13100        18.27300
H           8.14700         6.31400        17.33500
C           7.94600         6.64600        20.50600
O           8.54000         5.44600        21.02000
H           8.06800         5.11500        21.83700
C           7.98300        10.99000        19.50800
O           8.40900        11.56600        18.26500
H           8.36000        12.56400        18.22300
C           8.20300         9.52000        19.82400
O           7.54900         9.08700        21.02600
C           8.05700         7.81900        21.46600
O           7.34900         7.43500        22.65400

