# freq=raman b3lyp/6-31+g(2d,p) geom=connectivity

483 6000.com

0 1
C           8.00900         7.72400        23.92000
C           7.49800         9.05800        24.43700
O           7.80800        10.02900        23.42700
H           7.47800         9.68100        22.55000
C           8.14700         9.50000        25.73900
O           7.64200        10.67400        26.39200
H           8.04100        10.70700        27.30800
C           8.43000         5.30500        24.56400
O           7.72200         4.58400        23.54500
H           7.78900         3.58900        23.61600
C           7.89400         6.65900        24.99800
O           8.58500         7.06900        26.18800
C           8.07000         8.31200        26.68500
O           8.75200         8.60400        27.91400
C           8.09900         8.19500        29.12400
C           8.38300         6.78400        29.61300
O           7.76100         5.93000        28.64100
H           8.04500         6.21800        27.72700
C           8.03800         6.48500        31.06200
O           8.61700         5.26000        31.53500
H           8.16400         5.16700        32.42200
C           8.12300        10.62000        30.00600
O           8.53300        11.29100        28.80600
H           8.25300        12.24300        28.92700
C           8.57000         9.17800        30.18400
O           8.04300         8.86300        31.48100
C           8.36600         7.58800        32.05500
O           7.50500         7.63100        33.20200
C           8.17500         7.96900        34.42500

