# freq=raman b3lyp/6-31+g(2d,p) geom=connectivity

300 7944/7944.com

0 1
 O                  7.73500000    7.89800000   12.30900000
 C                  8.24800000    8.26600000   13.59800000
 C                  7.69200000    9.57200000   14.14100000
 O                  7.95200000   10.54000000   13.11400000
 H                  7.88700000   10.06500000   12.23700000
 C                  8.16100000   10.11300000   15.48200000
 O                  7.47900000   11.27700000   15.97100000
 H                  7.95100000   11.55100000   16.80900000
 C                  8.18100000    5.86700000   14.57300000
 O                  7.65000000    5.07300000   13.50200000
 H                  7.84800000    4.11500000   13.70700000
 C                  7.87200000    7.34500000   14.74700000
 O                  8.50700000    7.73100000   15.97500000
 C                  8.04400000    8.98500000   16.49500000
 O                  8.74500000    9.09300000   17.74300000
 C                  8.02700000    8.61400000   18.88900000
 C                  8.70800000    7.33800000   19.35600000
 O                  8.84000000    6.28000000   18.39500000
 H                  8.97600000    6.82700000   17.56900000
 C                  8.34600000    6.82400000   20.74000000
 O                  9.15600000    5.73000000   21.19400000
 H                  8.81500000    5.38200000   22.06800000
 C                  7.82400000   11.07000000   19.72300000
 O                  8.35100000   11.89000000   18.66900000
 H                  8.19600000   12.85100000   18.89800000
 C                  8.27000000    9.64000000   19.98300000
 O                  7.68100000    9.11900000   21.18300000
 C                  8.41700000    8.00000000   21.70000000
 O                  7.55800000    7.70600000   22.81100000
 H                  8.09138268    7.50180709   23.58262696
 H                  7.99114185   11.60691545   20.63332159
 H                  6.76526491   11.03178153   19.57293548
 H                  9.32728871    9.67401598   20.14388351
 H                  9.41354420    8.25202516   21.99712452
 H                  7.33099968    6.48682865   20.70853827
 H                  9.72037775    7.65880752   19.48666690
 H                  6.98569600    8.47148258   18.68831425
 H                  7.88333812    5.38684153   15.48170526
 H                  9.24608064    5.78613629   14.51003736
 H                  8.46593890    7.72714800   11.71055374
 H                  6.81543175    7.43444825   14.89039647
 H                  9.31415864    8.33662557   13.54127453
 H                  6.63043224    9.45563270   14.20757740
 H                  9.19748853   10.36117707   15.38713346
 H                  7.00445132    8.87422691   16.72296459

 1 2 1.0 40 1.0
 2 3 1.0 12 1.0 42 1.0
 3 4 1.0 6 1.0 43 1.0
 4 5 1.0
 5
 6 7 1.0 14 1.0 44 1.0
 7 8 1.0
 8
 9 10 1.0 12 1.0 38 1.0 39 1.0
 10 11 1.0
 11
 12 13 1.0 41 1.0
 13 14 1.0
 14 15 1.0 45 1.0
 15 16 1.0
 16 17 1.0 26 1.0 37 1.0
 17 18 1.0 20 1.0 36 1.0
 18 19 1.0
 19
 20 21 1.0 28 1.0 35 1.0
 21 22 1.0
 22
 23 24 1.0 26 1.0 31 1.0 32 1.0
 24 25 1.0
 25
 26 27 1.0 33 1.0
 27 28 1.0
 28 29 1.0 34 1.0
 29 30 1.0
 30
 31
 32
 33
 34
 35
 36
 37
 38
 39
 40
 41
 42
 43
 44
 45

