# freq=raman b3lyp/6-31+g(2d,p) geom=connectivity

473 7704/7704.com

0 1
 O                  7.51800000    7.67200000   12.45000000
 C                  8.15300000    8.05800000   13.67800000
 C                  7.50800000    9.36200000   14.11900000
 O                  7.67300000   10.38700000   13.12900000
 H                  7.29000000    9.95300000   12.31300000
 C                  8.02400000    9.82200000   15.47200000
 O                  7.40500000   10.90000000   16.18800000
 H                  7.86000000   10.95900000   17.07700000
 C                  8.33600000    5.56900000   14.39200000
 O                  7.68100000    4.82200000   13.35700000
 H                  7.83900000    3.83900000   13.44600000
 C                  7.88000000    6.98200000   14.71700000
 O                  8.33000000    7.41600000   16.00800000
 C                  7.98000000    8.71300000   16.51100000
 O                  8.76100000    9.01100000   17.67800000
 C                  8.31600000    8.47400000   18.93200000
 C                  8.79600000    7.10700000   19.39100000
 O                  8.40400000    6.14700000   18.39900000
 H                  8.80000000    6.47600000   17.54200000
 C                  8.26100000    6.73100000   20.76300000
 O                  8.70400000    5.49800000   21.34700000
 H                  8.36300000    5.54100000   22.28700000
 C                  8.02900000   10.79200000   19.75200000
 O                  8.40000000   11.55400000   18.59400000
 H                  8.24500000   12.53600000   18.70200000
 C                  8.74800000    9.47400000   19.99300000
 O                  8.20900000    9.13800000   21.28000000
 C                  8.56700000    7.83400000   21.76200000
 O                  7.67500000    7.66500000   22.87300000
 H                  8.18497241    7.54268507   23.67709402
 H                  7.19635824    6.66987949   20.67523780
 H                  9.58872485    7.80286608   22.07824201
 H                  9.86473879    7.12412053   19.44003348
 H                  7.24634681    8.45298703   18.91466463
 H                  9.81023232    9.59895180   20.02381476
 H                  8.18513824   11.40969502   20.61163580
 H                  6.98185200   10.58335515   19.68236967
 H                  8.25724088    4.99671150   15.29265691
 H                  9.37308645    5.62324477   14.13430019
 H                  6.81407494    6.92336134   14.78956227
 H                  8.18813620    7.46587171   11.79423434
 H                  9.20548947    8.18673446   13.53449615
 H                  6.45833823    9.18129160   14.22124794
 H                  9.05120975   10.08820017   15.33460419
 H                  6.96274788    8.64642166   16.83606224

 1 2 1.0 41 1.0
 2 3 1.0 12 1.0 42 1.0
 3 4 1.0 6 1.0 43 1.0
 4 5 1.0
 5
 6 7 1.0 14 1.0 44 1.0
 7 8 1.0
 8
 9 10 1.0 12 1.0 38 1.0 39 1.0
 10 11 1.0
 11
 12 13 1.0 40 1.0
 13 14 1.0
 14 15 1.0 45 1.0
 15 16 1.0
 16 17 1.0 26 1.0 34 1.0
 17 18 1.0 20 1.0 33 1.0
 18 19 1.0
 19
 20 21 1.0 28 1.0 31 1.0
 21 22 1.0
 22
 23 24 1.0 26 1.0 36 1.0 37 1.0
 24 25 1.0
 25
 26 27 1.0 35 1.0
 27 28 1.0
 28 29 1.0 32 1.0
 29 30 1.0
 30
 31
 32
 33
 34
 35
 36
 37
 38
 39
 40
 41
 42
 43
 44
 45

