# freq=raman b3lyp/6-31+g(2d,p) geom=connectivity

473 7704/7704.com

0 1
O           7.51800         7.67200        12.45000
C           8.15300         8.05800        13.67800
C           7.50800         9.36200        14.11900
O           7.67300        10.38700        13.12900
H           7.29000         9.95300        12.31300
C           8.02400         9.82200        15.47200
O           7.40500        10.90000        16.18800
H           7.86000        10.95900        17.07700
C           8.33600         5.56900        14.39200
O           7.68100         4.82200        13.35700
H           7.83900         3.83900        13.44600
C           7.88000         6.98200        14.71700
O           8.33000         7.41600        16.00800
C           7.98000         8.71300        16.51100
O           8.76100         9.01100        17.67800
C           8.31600         8.47400        18.93200
C           8.79600         7.10700        19.39100
O           8.40400         6.14700        18.39900
H           8.80000         6.47600        17.54200
C           8.26100         6.73100        20.76300
O           8.70400         5.49800        21.34700
H           8.36300         5.54100        22.28700
C           8.02900        10.79200        19.75200
O           8.40000        11.55400        18.59400
H           8.24500        12.53600        18.70200
C           8.74800         9.47400        19.99300
O           8.20900         9.13800        21.28000
C           8.56700         7.83400        21.76200
O           7.67500         7.66500        22.87300

