# freq=raman b3lyp/6-31+g(2df,p) geom=connectivity

400 5000.com

0 1
 O                  8.71200000    7.68500000   11.95900000
 C                  9.42700000    7.90500000   13.18400000
 C                  8.98200000    9.24800000   13.73900000
 O                  9.03900000   10.28200000   12.74600000
 H                  9.00500000    9.90400000   11.82100000
 C                  9.52300000    9.60500000   15.11400000
 O                  8.84300000   10.79300000   15.54200000
 H                  9.07800000   10.95500000   16.50000000
 C                  9.00100000    5.50700000   14.11000000
 O                  8.20300000    4.83200000   13.12600000
 H                  8.15600000    3.86300000   13.36800000
 C                  9.04000000    7.00800000   14.34800000
 O                  9.74600000    7.27700000   15.56700000
 C                  9.16700000    8.48600000   16.08000000
 O                  9.92800000    8.79800000   17.25600000
 C                  9.34900000    8.41100000   18.51100000
 C                  9.91200000    7.09600000   19.02700000
 O                  9.85900000    6.12800000   17.96800000
 H                  9.95800000    6.69300000   17.14900000
 C                  9.29200000    6.64800000   20.34000000
 O                  9.55100000    5.34900000   20.89100000
 H                  9.28000000    5.12100000   21.82700000
 C                  9.33800000   10.75400000   19.21400000
 O                  9.88100000   11.42300000   18.06600000
 H                  9.84500000   12.42200000   18.07900000
 C                  9.76600000    9.35500000   19.62700000
 O                  9.12600000    9.02800000   20.86900000
 C                  9.43400000    7.73000000   21.39800000
 O                  8.60800000    7.60600000   22.56500000
 H                  9.16396690    7.52330747   23.34324338
 H                 10.45468602    7.73890251   21.71896852
 H                  8.24373865    6.62450784   20.12670147
 H                 10.94876354    7.26770483   19.22834253
 H                  8.28262804    8.36179741   18.43799351
 H                 10.82859163    9.32357369   19.74870215
 H                  9.52406682   11.39019078   20.05396454
 H                  8.27780502   10.71951936   19.07365153
 H                  9.33740661    7.55625734   11.24213746
 H                  8.73451255    5.07039554   15.04981965
 H                 10.01204805    5.21747671   13.91287542
 H                  8.02469060    7.27255457   14.55789926
 H                 10.48466090    7.89088196   13.02258716
 H                  7.93374681    9.11785648   13.90966901
 H                 10.58112085    9.76048196   15.08074899
 H                  8.11645021    8.40708655   16.26713043

 1 2 1.0 38 1.0
 2 3 1.0 12 1.0 42 1.0
 3 4 1.0 6 1.0 43 1.0
 4 5 1.0
 5
 6 7 1.0 14 1.0 44 1.0
 7 8 1.0
 8
 9 10 1.0 12 1.0 39 1.0 40 1.0
 10 11 1.0
 11
 12 13 1.0 41 1.0
 13 14 1.0
 14 15 1.0 45 1.0
 15 16 1.0
 16 17 1.0 26 1.0 34 1.0
 17 18 1.0 20 1.0 33 1.0
 18 19 1.0
 19
 20 21 1.0 28 1.0 32 1.0
 21 22 1.0
 22
 23 24 1.0 26 1.0 36 1.0 37 1.0
 24 25 1.0
 25
 26 27 1.0 35 1.0
 27 28 1.0
 28 29 1.0 31 1.0
 29 30 1.0
 30
 31
 32
 33
 34
 35
 36
 37
 38
 39
 40
 41
 42
 43
 44
 45

