# freq=raman b3lyp/6-31+g(2d,p) geom=connectivity

550 5402/5402.com

0 1
 O                  9.54000000    7.62200000   11.29100000
 C                 10.52600000    7.74300000   12.32600000
 C                 10.50100000    9.08300000   13.04200000
 O                 11.12900000    9.95000000   12.08600000
 H                 10.64900000    9.65200000   11.26100000
 C                 11.09400000    9.32900000   14.41900000
 O                 10.51900000   10.41800000   15.15600000
 H                 10.84500000   11.19200000   14.61300000
 C                 10.02700000    5.26400000   13.17500000
 O                  9.22800000    4.43700000   14.03300000
 H                  8.95200000    3.75400000   13.35600000
 C                 10.33500000    6.72800000   13.44200000
 O                 11.28500000    6.87900000   14.50800000
 C                 10.79600000    8.04800000   15.18200000
 O                 11.27500000    7.82900000   16.51700000
 C                 10.37700000    7.70400000   17.62900000
 C                 10.02400000    6.34600000   18.21300000
 O                  9.48000000    5.51100000   17.18000000
 H                 10.19400000    5.56100000   16.48100000
 C                  9.07000000    6.56500000   19.37600000
 O                  8.59900000    5.24800000   19.69700000
 H                  8.00300000    4.96800000   18.94500000
 C                 11.52400000    9.90200000   18.33200000
 O                 12.27100000   10.79200000   19.17600000
 H                 13.20100000   10.42500000   19.18800000
 C                 11.08400000    8.49900000   18.71400000
 O                 10.23200000    8.55700000   19.86700000
 C                  9.94200000    7.26000000   20.40900000
 O                  9.24500000    7.50200000   21.64000000
 H                  9.88078178    7.64074866   22.34578349
 H                 10.84327304    6.70967174   20.58146947
 H                  8.25785502    7.19586692   19.08048778
 H                 10.91775103    5.89040645   18.58521447
 H                  9.46572207    8.20677329   17.38062216
 H                 11.96213795    7.95308149   18.98922122
 H                 10.63095261   10.42837302   18.06686269
 H                 12.09781641    9.79632630   17.43507871
 H                  9.97749990    7.52277609   10.44226656
 H                 10.97299950    4.77237127   13.08397178
 H                  9.56399929    5.22800449   12.21103181
 H                  9.42402323    7.06600092   13.89008113
 H                 11.49485388    7.60168004   11.89443213
 H                  9.47335944    9.37494889   13.10217244
 H                 12.15237070    9.46434431   14.33879161
 H                  9.73012422    7.96297159   15.22173657

 1 2 1.0 38 1.0
 2 3 1.0 12 1.0 42 1.0
 3 4 1.0 6 1.0 43 1.0
 4 5 1.0
 5
 6 7 1.0 14 1.0 44 1.0
 7 8 1.0
 8
 9 10 1.0 12 1.0 39 1.0 40 1.0
 10 11 1.0
 11
 12 13 1.0 41 1.0
 13 14 1.0
 14 15 1.0 45 1.0
 15 16 1.0
 16 17 1.0 26 1.0 34 1.0
 17 18 1.0 20 1.0 33 1.0
 18 19 1.0
 19
 20 21 1.0 28 1.0 32 1.0
 21 22 1.0
 22
 23 24 1.0 26 1.0 36 1.0 37 1.0
 24 25 1.0
 25
 26 27 1.0 35 1.0
 27 28 1.0
 28 29 1.0 31 1.0
 29 30 1.0
 30
 31
 32
 33
 34
 35
 36
 37
 38
 39
 40
 41
 42
 43
 44
 45

