# freq=raman b3lyp/6-31+g(2d,p) geom=connectivity

550 5402/5402.com

0 1
O           9.54000         7.62200        11.29100
C          10.52600         7.74300        12.32600
C          10.50100         9.08300        13.04200
O          11.12900         9.95000        12.08600
H          10.64900         9.65200        11.26100
C          11.09400         9.32900        14.41900
O          10.51900        10.41800        15.15600
H          10.84500        11.19200        14.61300
C          10.02700         5.26400        13.17500
O           9.22800         4.43700        14.03300
H           8.95200         3.75400        13.35600
C          10.33500         6.72800        13.44200
O          11.28500         6.87900        14.50800
C          10.79600         8.04800        15.18200
O          11.27500         7.82900        16.51700
C          10.37700         7.70400        17.62900
C          10.02400         6.34600        18.21300
O           9.48000         5.51100        17.18000
H          10.19400         5.56100        16.48100
C           9.07000         6.56500        19.37600
O           8.59900         5.24800        19.69700
H           8.00300         4.96800        18.94500
C          11.52400         9.90200        18.33200
O          12.27100        10.79200        19.17600
H          13.20100        10.42500        19.18800
C          11.08400         8.49900        18.71400
O          10.23200         8.55700        19.86700
C           9.94200         7.26000        20.40900
O           9.24500         7.50200        21.64000

