# freq=raman b3lyp/6-31+g(d,p) geom=connectivity

280 9000.com

0 1
 O                  7.60600000    7.60800000   22.62700000
 C                  8.33800000    7.84800000   23.83700000
 C                  7.76200000    9.08800000   24.50200000
 O                  7.73100000   10.16200000   23.55000000
 H                  7.78200000    9.74100000   22.64400000
 C                  8.31900000    9.55200000   25.83800000
 O                  7.50800000   10.62000000   26.35000000
 H                  7.92600000   10.89700000   27.21500000
 C                  8.63200000    5.39200000   24.60600000
 O                  8.25100000    4.62800000   23.45300000
 H                  8.12900000    3.69600000   23.79400000
 C                  8.13800000    6.79600000   24.91600000
 O                  8.70400000    7.12400000   26.19300000
 C                  8.19500000    8.34400000   26.75100000
 O                  8.93600000    8.55000000   27.96300000
 C                  8.16800000    8.41000000   29.16700000
 C                  8.45300000    6.96000000   29.52000000
 O                  7.90100000    6.01800000   28.58900000
 H                  8.25600000    6.26400000   27.68700000
 C                  8.16700000    6.65100000   30.98100000
 O                  8.79000000    5.39200000   31.27500000
 H                  8.67100000    5.22500000   32.25400000
 C                  8.14600000   10.81200000   30.12700000
 O                  8.23800000   11.52500000   28.88600000
 H                  8.11400000   12.48900000   29.12100000
 C                  8.63000000    9.37600000   30.24600000
 O                  8.17700000    9.03600000   31.56500000
 C                  8.58800000    7.72300000   31.97300000
 O                  7.86300000    7.56600000   33.20100000
 H                  8.22107079    7.46459584   21.90400403
 H                  8.48231314    7.47297656   33.92859733
 H                  8.37564807    4.79380974   25.45532449
 H                  9.69997848    5.45281833   24.58103789
 H                  7.08094111    6.71903356   25.06297847
 H                  9.37903572    7.98254204   23.62953176
 H                  6.73750779    8.84882414   24.69721941
 H                  9.34027317    9.85653028   25.74227945
 H                  7.16313775    8.20494643   26.99762602
 H                  8.68343874   11.38313832   30.85491526
 H                  7.11522211   10.81803559   30.41398523
 H                  9.69997437    9.38241974   30.24969208
 H                  7.12656648    8.54624046   28.96266018
 H                  9.51306841    6.85502835   29.41932266
 H                  7.10977595    6.51995504   31.08102268
 H                  9.64317256    7.69096372   32.14759824

 1 2 1.0 30 1.0
 2 3 1.0 12 1.0 35 1.0
 3 4 1.0 6 1.0 36 1.0
 4 5 1.0
 5
 6 7 1.0 14 1.0 37 1.0
 7 8 1.0
 8
 9 10 1.0 12 1.0 32 1.0 33 1.0
 10 11 1.0
 11
 12 13 1.0 34 1.0
 13 14 1.0
 14 15 1.0 38 1.0
 15 16 1.0
 16 17 1.0 26 1.0 42 1.0
 17 18 1.0 20 1.0 43 1.0
 18 19 1.0
 19
 20 21 1.0 28 1.0 44 1.0
 21 22 1.0
 22
 23 24 1.0 26 1.0 39 1.0 40 1.0
 24 25 1.0
 25
 26 27 1.0 41 1.0
 27 28 1.0
 28 29 1.0 45 1.0
 29 31 1.0
 30
 31
 32
 33
 34
 35
 36
 37
 38
 39
 40
 41
 42
 43
 44
 45

