# freq=raman b3lyp/6-31+g(2d,p) geom=connectivity
320 10000.com
320 10000.com
C           8.33500         7.97900         2.87600
0 1
O           8.10800        10.13800        23.51100
H           8.11700         9.67000        22.62700
C           7.98700         9.64000        25.96300
O           7.59600        10.96200        26.36300
H           8.03000        10.99700        27.26300
C           7.85900         5.41500        24.89400
O           7.71300         4.88200        23.57000
H           8.03200         3.93500        23.59100
C           7.39400         6.85600        25.03000
O           7.69600         7.19900        26.39000
C           7.45000         8.53400        26.85600
O           8.26400         8.58300        28.03600
C           7.74200         8.20800        29.32000
C           8.31700         6.84000        29.65000
O           7.68400         5.85600        28.82000
H           7.64300         6.23600        27.89600
C           8.02800         6.38200        31.07000
O           8.97400         5.40900        31.53700
H           8.70300         5.20900        32.47900
C           7.83500        10.64400        30.15200
O           8.14200        11.32400        28.92600
H           8.01200        12.28600        29.16800
C           8.26600         9.19900        30.34600
O           7.83900         8.80000        31.65600
C           8.41500         7.52900        31.99000
O           7.66500         7.49100        33.21200
C           8.37200         7.75700        34.43300
C           7.92000         9.12300        34.92300
O           8.15100        10.14300        33.94100

