# freq=raman b3lyp/6-31+g(d,p) geom=connectivity

550 5000.com

0 1
 O                  9.02200000    7.88100000   11.02500000
 C                  9.90400000    7.60600000   12.12300000
 C                 10.02200000    8.81000000   13.04300000
 O                 10.21700000    9.96500000   12.21400000
 H                 10.17600000    9.75700000   11.23700000
 C                 10.89800000    8.62100000   14.27200000
 O                 11.10200000    9.81500000   15.04100000
 H                 11.66300000   10.41800000   14.47300000
 C                  9.04800000    5.18300000   12.62700000
 O                  8.72600000    4.05800000   13.45800000
 H                  8.45100000    3.30100000   12.86600000
 C                  9.38800000    6.58100000   13.11900000
 O                 10.37600000    6.23600000   14.10200000
 C                 10.42400000    7.36600000   14.98600000
 O                 11.20900000    6.96900000   16.12000000
 C                 10.62300000    7.05200000   17.42700000
 C                 10.09400000    5.70600000   17.89400000
 O                  9.33800000    4.85900000   17.01600000
 H                  9.73200000    5.00000000   16.10700000
 C                  9.28700000    5.99800000   19.14800000
 O                  8.37700000    5.00100000   19.63400000
 H                  7.85100000    4.61100000   18.87800000
 C                 12.25500000    8.88700000   18.21900000
 O                 11.37000000    9.99600000   18.00800000
 H                 10.95300000    9.89200000   17.10500000
 C                 11.55900000    7.56700000   18.50900000
 O                 10.82300000    7.74100000   19.72800000
 C                 10.10300000    6.62400000   20.26800000
 O                  9.37200000    6.95600000   21.45700000
 H                  9.53925746    8.07748212   10.24050048
 H                  9.87926234    4.87454998   12.02803297
 H                  8.21778979    5.30169162   11.96249770
 H                  8.53280393    6.98791661   13.61695437
 H                 10.86989472    7.31952338   11.76261334
 H                  9.03901699    8.93697862   13.44613872
 H                 11.86713852    8.37407908   13.89160468
 H                  9.42815197    7.55011860   15.33137955
 H                  9.98775084    7.15407682   22.16637753
 H                 10.83416702    5.89758495   20.55542993
 H                  8.63772024    6.79021912   18.83860597
 H                 10.94644830    5.13614070   18.19976507
 H                  9.79364098    7.72542351   17.36729747
 H                 12.31155010    6.82501378   18.67640611
 H                 12.85849938    8.76536739   17.34384630
 H                 12.89625140    9.11888717   19.04357564

 1 2 1.0 30 1.0
 2 3 1.0 12 1.0 34 1.0
 3 4 1.0 6 1.0 35 1.0
 4 5 1.0
 5
 6 7 1.0 14 1.0 36 1.0
 7 8 1.0
 8
 9 10 1.0 12 1.0 31 1.0 32 1.0
 10 11 1.0
 11
 12 13 1.0 33 1.0
 13 14 1.0
 14 15 1.0 37 1.0
 15 16 1.0
 16 17 1.0 26 1.0 42 1.0
 17 18 1.0 20 1.0 41 1.0
 18 19 1.0
 19
 20 21 1.0 28 1.0 40 1.0
 21 22 1.0
 22
 23 24 1.0 26 1.0 44 1.0 45 1.0
 24 25 1.0
 25
 26 27 1.0 43 1.0
 27 28 1.0
 28 29 1.0 39 1.0
 29 38 1.0
 30
 31
 32
 33
 34
 35
 36
 37
 38
 39
 40
 41
 42
 43
 44
 45

