# freq=raman b3lyp/6-31+g(d,p) geom=connectivity

290 10000.com

0 1
 O                  7.75000000    7.64500000   22.84200000
 C                  8.42200000    7.94400000   24.07400000
 C                  7.87300000    9.26000000   24.60000000
 O                  8.23500000   10.28100000   23.65800000
 H                  7.71900000   10.17000000   22.80800000
 C                  8.42900000    9.65300000   25.95900000
 O                  7.82500000   10.82000000   26.53600000
 H                  8.21500000   10.93000000   27.45000000
 C                  8.63300000    5.49400000   24.83900000
 O                  8.25500000    4.68400000   23.71600000
 H                  8.37100000    3.73300000   24.00300000
 C                  8.03000000    6.86900000   25.07500000
 O                  8.49800000    7.25100000   26.37700000
 C                  8.01900000    8.51000000   26.87300000
 O                  8.74600000    8.78000000   28.08000000
 C                  8.07800000    8.47500000   29.31300000
 C                  8.81400000    7.20000000   29.68700000
 O                  8.69000000    6.09600000   28.77800000
 H                  8.66000000    6.50300000   27.86500000
 C                  8.53000000    6.78400000   31.12200000
 O                  9.17600000    5.57000000   31.52900000
 H                  8.82800000    5.41500000   32.45400000
 C                  8.09800000   10.89800000   29.99700000
 O                  8.54500000   11.65800000   28.86500000
 H                  8.34700000   12.61300000   29.08400000
 C                  8.59700000    9.49700000   30.31100000
 O                  8.14100000    9.17700000   31.63400000
 C                  8.73700000    7.94900000   32.07700000
 O                  7.99700000    7.60800000   33.25800000
 H                  8.60738962    7.40245260   33.96988116
 H                  8.39982786    7.47834285   22.15530564
 H                  6.96267489    8.49626010   27.04296608
 H                  9.49412479    9.74907678   25.92467156
 H                  6.80650394    9.19790628   24.66025375
 H                  9.48286178    7.98717522   23.94130416
 H                  6.96359571    6.78414813   25.09695584
 H                  8.43497065    4.91552728   25.71709663
 H                  9.69291025    5.62807784   24.77972608
 H                  8.30519851   11.49339896   30.86156281
 H                  7.03364525   10.82781762   29.91259979
 H                  9.66688491    9.49226333   30.29603853
 H                  7.01361778    8.38614279   29.24900868
 H                  9.85142180    7.46134495   29.66816318
 H                  7.48194470    6.57092186   31.15482976
 H                  9.77440757    8.08351723   32.30192364

 1 2 1.0 31 1.0
 2 3 1.0 12 1.0 35 1.0
 3 4 1.0 6 1.0 34 1.0
 4 5 1.0
 5
 6 7 1.0 14 1.0 33 1.0
 7 8 1.0
 8
 9 10 1.0 12 1.0 37 1.0 38 1.0
 10 11 1.0
 11
 12 13 1.0 36 1.0
 13 14 1.0
 14 15 1.0 32 1.0
 15 16 1.0
 16 17 1.0 26 1.0 42 1.0
 17 18 1.0 20 1.0 43 1.0
 18 19 1.0
 19
 20 21 1.0 28 1.0 44 1.0
 21 22 1.0
 22
 23 24 1.0 26 1.0 39 1.0 40 1.0
 24 25 1.0
 25
 26 27 1.0 41 1.0
 27 28 1.0
 28 29 1.0 45 1.0
 29 30 1.0
 30
 31
 32
 33
 34
 35
 36
 37
 38
 39
 40
 41
 42
 43
 44
 45

