# freq=raman b3lyp/6-31+g(d,p) geom=connectivity

310 10000.com

0 1
O           7.46700         7.73100        12.24100
C           8.05900         7.83800        13.54400
C           7.71500         9.22400        14.06500
O           8.06100        10.25300        13.12600
H           7.97700         9.98800        12.16600
C           8.25600         9.55000        15.44700
O           7.60100        10.72900        15.93700
H           7.99700        11.13200        16.76200
C           7.95200         5.35600        14.18300
O           7.49900         4.89300        12.90200
H           7.61600         3.90100        12.87600
C           7.60800         6.79100        14.55000
O           8.23500         7.16700        15.78400
C           7.86800         8.41800        16.38400
O           8.72300         8.60000        17.52200
C           8.02100         8.42900        18.76200
C           8.49000         7.03900        19.15800
O           8.04600         6.02800        18.24100
H           8.25800         6.25500        17.29000
C           8.03800         6.75100        20.58100
O           8.68700         5.63700        21.21000
H           8.31900         5.47900        22.12600
C           7.98000        10.85900        19.55000
O           8.38800        11.45800        18.31100
H           8.29200        12.44700        18.42800
C           8.39500         9.42700        19.84600
O           7.85300         9.16900        21.14900
C           8.38400         7.89000        21.52600
O           7.82900         7.56000        22.80700

