# freq=raman b3lyp/6-31+g(d,p) geom=connectivity

310 5000.com

0 1
O           7.85500         7.44700        12.20400
C           8.36000         7.82700        13.49200
C           7.75100         9.15300        13.91900
O           7.93800        10.14500        12.89800
H           7.43100         9.80600        12.10600
C           8.27000         9.56000        15.28800
O           7.76000        10.75700        15.89400
H           8.21000        10.86500        16.78100
C           8.53700         5.39400        14.18500
O           8.15700         4.67800        13.00200
H           8.18900         3.70400        13.22600
C           8.03100         6.78100        14.54400
O           8.62400         7.21600        15.77600
C           8.15200         8.45500        16.32500
O           9.05300         8.54200        17.43800
C           8.57700         8.19900        18.74700
C           8.93000         6.80800        19.24900
O           8.39800         5.88800        18.28500
H           8.46200         6.31900        17.38500
C           8.43700         6.34600        20.61100
O           9.03500         5.18300        21.20300
H           8.54900         5.05200        22.06700
C           8.11600        10.55100        19.60400
O           8.52600        11.26100        18.42500
H           8.40900        12.25200        18.36800
C           8.80400         9.21900        19.85200
O           8.14600         8.78200        21.04900
C           8.63700         7.52800        21.54500
O           7.76000         7.37200        22.67000

