# freq=raman b3lyp/6-31+g(d,p) geom=connectivity

310 7000.com

0 1
O           7.74600         7.40200        12.18800
C           8.39200         7.74500        13.42300
C           7.83200         9.06900        13.91700
O           8.11600        10.15900        13.02800
H           7.93400         9.77700        12.12200
C           8.45800         9.41000        15.26000
O           7.92300        10.63600        15.78000
H           8.20500        10.87500        16.70900
C           8.76200         5.29000        14.10200
O           8.12800         4.39700        13.17500
H           8.41700         3.44000        13.19000
C           8.25700         6.67000        14.49000
O           8.84300         7.09700        15.72800
C           8.22100         8.28100        16.24900
O           8.97400         8.61900        17.42200
C           8.28700         8.27000        18.63200
C           8.81300         6.98600        19.25200
O           8.46700         5.97700        18.29200
H           8.84800         6.21400        17.39800
C           8.34600         6.59700        20.64500
O           8.93800         5.44400        21.26000
H           8.41500         5.25300        22.09100
C           7.87500        10.70300        19.19000
O           8.57900        11.43500        18.17600
H           8.18300        12.35000        18.10900
C           8.43800         9.37400        19.66600
O           7.86000         9.00300        20.92600
C           8.44900         7.83600        21.52000
O           7.65400         7.58400        22.68800

