# freq=raman b3lyp/6-31+g(d,p) geom=connectivity

310 8000.com

0 1
O           8.11600         7.61900        12.35900
C           8.60200         7.96000        13.66500
C           8.15500         9.36300        14.04200
O           8.38400        10.32800        13.00400
H           8.55100         9.84200        12.14600
C           8.55700         9.74700        15.45700
O           7.83500        10.92000        15.85800
H           8.15600        11.28300        16.73300
C           8.30400         5.52600        14.45100
O           7.69600         4.90900        13.30600
H           7.87100         3.92500        13.33700
C           8.05600         7.00200        14.71200
O           8.79200         7.28800        15.91000
C           8.39200         8.57300        16.40800
O           9.05900         8.61100        17.67800
C           8.22500         8.27800        18.79800
C           8.69900         6.94200        19.34500
O           8.40500         5.96400        18.33600
H           8.83800         6.34200        17.51700
C           8.18100         6.51600        20.70900
O           8.98000         5.49200        21.31800
H           8.42100         5.08300        22.03900
C           7.72800        10.72100        19.51800
O           8.19000        11.46100        18.37800
H           8.16500        12.44300        18.56300
C           8.38300         9.38500        19.82800
O           7.79900         8.90400        21.04700
C           8.38400         7.72200        21.61200
O           7.55100         7.54500        22.76700

