# freq=raman b3lyp/6-31+g(d,p) geom=connectivity

310 9000.com

0 1
 O                  7.20900000    7.58400000   12.05800000
 C                  7.74100000    8.01000000   13.32100000
 C                  7.22200000    9.33300000   13.85900000
 O                  7.56000000   10.36900000   12.92500000
 H                  7.33900000   10.01300000   12.01800000
 C                  7.72600000    9.64000000   15.26000000
 O                  7.11300000   10.78400000   15.87200000
 H                  7.53900000   10.78200000   16.77700000
 C                  7.93900000    5.43200000   14.06700000
 O                  7.28900000    4.58000000   13.11300000
 H                  7.62100000    3.64700000   13.25100000
 C                  7.56900000    6.88300000   14.32700000
 O                  8.06300000    7.25700000   15.62100000
 C                  7.49400000    8.45000000   16.17800000
 O                  8.28500000    8.69500000   17.35000000
 C                  7.77100000    8.19700000   18.59400000
 C                  8.41500000    6.88400000   19.00900000
 O                  8.16200000    5.85000000   18.04700000
 H                  8.29600000    6.41500000   17.23300000
 C                  8.17000000    6.44500000   20.44400000
 O                  9.00600000    5.43500000   21.02600000
 H                  8.63600000    5.20800000   21.92700000
 C                  7.55500000   10.52300000   19.47800000
 O                  7.83900000   11.28200000   18.29400000
 H                  7.70400000   12.26700000   18.40700000
 C                  8.24100000    9.17800000   19.65600000
 O                  7.83300000    8.77800000   20.97300000
 C                  8.42100000    7.55800000   21.44800000
 O                  7.66800000    7.38600000   22.65700000
 H                  7.93099258    7.38178351   11.45847084
 H                  8.27045285    7.28072599   23.39697834
 H                  9.46448351    7.68070366   21.65044995
 H                  7.15047584    6.13193400   20.53037222
 H                  9.46830748    7.06391925   18.95357060
 H                  6.70369171    8.12298253   18.57743396
 H                  9.30390168    9.29372675   19.61419891
 H                  7.81213559   11.13057063   20.32040086
 H                  6.49896420   10.35316576   19.50706389
 H                  6.45867290    8.32470364   16.41737130
 H                  8.77961525    9.81750175   15.20265861
 H                  6.15481050    9.27020460   13.90442369
 H                  8.79415250    8.13515819   13.17920702
 H                  6.50784738    6.84094490   14.45771532
 H                  7.86057395    4.93329893   15.01042281
 H                  8.97598249    5.43403336   13.80325166

 1 2 1.0 30 1.0
 2 3 1.0 12 1.0 42 1.0
 3 4 1.0 6 1.0 41 1.0
 4 5 1.0
 5
 6 7 1.0 14 1.0 40 1.0
 7 8 1.0
 8
 9 10 1.0 12 1.0 44 1.0 45 1.0
 10 11 1.0
 11
 12 13 1.0 43 1.0
 13 14 1.0
 14 15 1.0 39 1.0
 15 16 1.0
 16 17 1.0 26 1.0 35 1.0
 17 18 1.0 20 1.0 34 1.0
 18 19 1.0
 19
 20 21 1.0 28 1.0 33 1.0
 21 22 1.0
 22
 23 24 1.0 26 1.0 37 1.0 38 1.0
 24 25 1.0
 25
 26 27 1.0 36 1.0
 27 28 1.0
 28 29 1.0 32 1.0
 29 31 1.0
 30
 31
 32
 33
 34
 35
 36
 37
 38
 39
 40
 41
 42
 43
 44
 45

