# freq=raman b3lyp/6-31+g(2d,p) geom=connectivity
280 9000.com
280 9000.com
C           8.31200         7.89500         2.98900
0 1
O           7.73100        10.16200        23.55000
H           7.78200         9.74100        22.64400
C           8.31900         9.55200        25.83800
O           7.50800        10.62000        26.35000
H           7.92600        10.89700        27.21500
C           8.63200         5.39200        24.60600
O           8.25100         4.62800        23.45300
H           8.12900         3.69600        23.79400
C           8.13800         6.79600        24.91600
O           8.70400         7.12400        26.19300
C           8.19500         8.34400        26.75100
O           8.93600         8.55000        27.96300
C           8.16800         8.41000        29.16700
C           8.45300         6.96000        29.52000
O           7.90100         6.01800        28.58900
H           8.25600         6.26400        27.68700
C           8.16700         6.65100        30.98100
O           8.79000         5.39200        31.27500
H           8.67100         5.22500        32.25400
C           8.14600        10.81200        30.12700
O           8.23800        11.52500        28.88600
H           8.11400        12.48900        29.12100
C           8.63000         9.37600        30.24600
O           8.17700         9.03600        31.56500
C           8.58800         7.72300        31.97300
O           7.86300         7.56600        33.20100
C           8.52800         7.93500        34.41800
C           8.03100         9.22400        35.04900
O           8.04200        10.27000        34.06700

