# freq=raman b3lyp/6-31+g(2d,p) geom=connectivity

493 10000/10000.com

0 1
O           7.56700         7.70700        12.16200
C           8.23000         8.13500        13.36000
C           7.48100         9.29300        13.99900
O           7.41600        10.27900        12.95900
H           7.16100         9.74000        12.15600
C           8.04100         9.84100        15.30100
O           7.33500        10.99300        15.78500
H           7.68400        11.26000        16.68400
C           8.76000         5.73400        14.06400
O           7.96600         4.99300        13.12600
H           8.12300         4.03000        13.34400
C           8.17200         7.08100        14.45300
O           8.80300         7.54600        15.65500
C           8.11700         8.65700        16.25100
O           8.81000         8.84000        17.49400
C           8.10900         8.40300        18.66700
C           8.62000         7.11500        19.29100
O           8.56800         6.14600        18.23400
H           8.90300         6.55600        17.38600
C           7.87300         6.71200        20.55200
O           8.17700         5.41200        21.07700
H           7.71200         5.33000        21.95900
C           7.40100        10.71200        19.55000
O           7.75100        11.45600        18.37400
H           7.72200        12.42700        18.61400
C           8.16300         9.42000        19.79500
O           7.68000         9.03200        21.08900
C           8.21100         7.78900        21.57000
O           7.47800         7.58100        22.78600

