# freq=raman b3lyp/6-31+g(2d,p) geom=connectivity

493 10000.com

0 1
C           8.12100         7.86600        24.03700
C           7.64300         9.24000        24.48000
O           7.76900        10.32900        23.55400
H           7.56200         9.86400        22.69300
C           8.16600         9.59500        25.86200
O           7.75800        10.84700        26.43100
H           8.07400        10.94400        27.37500
C           8.10000         5.45300        24.82700
O           7.70000         4.83100        23.59700
H           7.66300         3.83200        23.63900
C           7.65400         6.88100        25.09600
O           8.22200         7.14400        26.38700
C           7.86900         8.46200        26.83100
O           8.65400         8.66600        28.01400
C           8.02500         8.15700        29.19900
C           8.50100         6.82900        29.76500
O           8.30300         5.69300        28.91100
H           8.71900         6.04500        28.07300
C           7.86700         6.44800        31.09300
O           8.35000         5.21900        31.65400
H           8.00800         5.01500        32.57100
C           7.64000        10.66600        29.89800
O           8.18700        11.47500        28.84700
H           7.88300        12.42200        28.95700
C           8.12700         9.26600        30.23300
O           7.64600         8.86200        31.52300
C           8.01100         7.59200        32.08300
O           7.28700         7.43600        33.31200
C           7.95600         7.81000        34.52500

