# freq=raman b3lyp/6-31+g(2d,p) geom=connectivity

483 9523/9523.com

0 1
 O                  7.58500000    7.81500000   12.32900000
 C                  8.16700000    8.20100000   13.58200000
 C                  7.73300000    9.59900000   13.99400000
 O                  8.02400000   10.53800000   12.94900000
 H                  7.92500000   10.15100000   12.03200000
 C                  8.33000000    9.91100000   15.35600000
 O                  7.97000000   11.21000000   15.85000000
 H                  8.17700000   11.36700000   16.81500000
 C                  8.04600000    5.74800000   14.43600000
 O                  7.58000000    4.91900000   13.36100000
 H                  7.71300000    3.98100000   13.68000000
 C                  7.68800000    7.21200000   14.63200000
 O                  8.35000000    7.55800000   15.85800000
 C                  7.96100000    8.84000000   16.37000000
 O                  8.84500000    8.97000000   17.49400000
 C                  8.27400000    8.52800000   18.73400000
 C                  8.88600000    7.24300000   19.26900000
 O                  8.48300000    6.24600000   18.31800000
 H                  8.34200000    6.67900000   17.42800000
 C                  8.29000000    6.85900000   20.61300000
 O                  8.73700000    5.57700000   21.07500000
 H                  8.53800000    5.26700000   22.00500000
 C                  7.88900000   10.96900000   19.55900000
 O                  8.32700000   11.69300000   18.40000000
 H                  8.19700000   12.65400000   18.64400000
 C                  8.47900000    9.58900000   19.80200000
 O                  7.90600000    9.16600000   21.04800000
 C                  8.53400000    7.99600000   21.59200000
 O                  7.83400000    7.67900000   22.80300000
 H                  8.46779216    7.49640603   23.50054351
 H                  9.57807369    8.15171419   21.76682341
 H                  7.23120830    6.78696258   20.47635906
 H                  9.95217656    7.31525338   19.32328613
 H                  7.22388266    8.37723762   18.59462901
 H                  9.53283273    9.70513503   19.94639262
 H                  8.10435633   11.56993467   20.41771949
 H                  6.82663028   10.86060987   19.49175300
 H                  8.28242396    7.62078038   11.69854099
 H                  7.75458931    5.25108770   15.33769727
 H                  9.11451091    5.70993294   14.39434270
 H                  6.62972688    7.30788221   14.75755714
 H                  9.23389437    8.16159966   13.51069774
 H                  6.66977329    9.58003468   14.11269829
 H                  9.39440515    9.89529861   15.24785595
 H                  6.92974438    8.87361774   16.65334025

 1 2 1.0 38 1.0
 2 3 1.0 12 1.0 42 1.0
 3 4 1.0 6 1.0 43 1.0
 4 5 1.0
 5
 6 7 1.0 14 1.0 44 1.0
 7 8 1.0
 8
 9 10 1.0 12 1.0 39 1.0 40 1.0
 10 11 1.0
 11
 12 13 1.0 41 1.0
 13 14 1.0
 14 15 1.0 45 1.0
 15 16 1.0
 16 17 1.0 26 1.0 34 1.0
 17 18 1.0 20 1.0 33 1.0
 18 19 1.0
 19
 20 21 1.0 28 1.0 32 1.0
 21 22 1.0
 22
 23 24 1.0 26 1.0 36 1.0 37 1.0
 24 25 1.0
 25
 26 27 1.0 35 1.0
 27 28 1.0
 28 29 1.0 31 1.0
 29 30 1.0
 30
 31
 32
 33
 34
 35
 36
 37
 38
 39
 40
 41
 42
 43
 44
 45

