# freq=raman b3lyp/6-31+g(2d,p) geom=connectivity

310 8322/8322.com

0 1
O           7.53200         7.78400        12.42200
C           8.26200         8.01700        13.63600
C           7.82400         9.34900        14.22200
O           8.20900        10.48700        13.43700
H           7.94400        10.28300        12.49400
C           8.34700         9.57900        15.63100
O           7.73400        10.78600        16.10700
H           8.25700        11.11400        16.89400
C           8.45600         5.61600        14.29700
O           7.89400         4.97400        13.14400
H           7.78300         4.00100        13.34700
C           8.00900         7.00000        14.73700
O           8.56400         7.23900        16.03900
C           8.13800         8.46700        16.64600
O           8.85600         8.79200        17.84500
C           8.25600         8.47700        19.11000
C           8.85000         7.13500        19.50600
O           8.52500         6.06800        18.60300
H           8.64600         6.38000        17.66000
C           8.45500         6.73600        20.91800
O           9.20600         5.59600        21.36000
H           8.90000         5.44400        22.30000
C           8.28200        10.92700        19.82200
O           8.92900        11.52500        18.68900
H           8.67500        12.49300        18.69900
C           8.64500         9.49300        20.17100
O           8.17000         9.17100        21.48600
C           8.70600         7.89600        21.86800
O           7.89200         7.51400        22.98700

