# freq=raman b3lyp/6-31+g(2d,p) geom=connectivity

310 8322/8322.com

0 1
 O                  7.53200000    7.78400000   12.42200000
 C                  8.26200000    8.01700000   13.63600000
 C                  7.82400000    9.34900000   14.22200000
 O                  8.20900000   10.48700000   13.43700000
 H                  7.94400000   10.28300000   12.49400000
 C                  8.34700000    9.57900000   15.63100000
 O                  7.73400000   10.78600000   16.10700000
 H                  8.25700000   11.11400000   16.89400000
 C                  8.45600000    5.61600000   14.29700000
 O                  7.89400000    4.97400000   13.14400000
 H                  7.78300000    4.00100000   13.34700000
 C                  8.00900000    7.00000000   14.73700000
 O                  8.56400000    7.23900000   16.03900000
 C                  8.13800000    8.46700000   16.64600000
 O                  8.85600000    8.79200000   17.84500000
 C                  8.25600000    8.47700000   19.11000000
 C                  8.85000000    7.13500000   19.50600000
 O                  8.52500000    6.06800000   18.60300000
 H                  8.64600000    6.38000000   17.66000000
 C                  8.45500000    6.73600000   20.91800000
 O                  9.20600000    5.59600000   21.36000000
 H                  8.90000000    5.44400000   22.30000000
 C                  8.28200000   10.92700000   19.82200000
 O                  8.92900000   11.52500000   18.68900000
 H                  8.67500000   12.49300000   18.69900000
 C                  8.64500000    9.49300000   20.17100000
 O                  8.17000000    9.17100000   21.48600000
 C                  8.70600000    7.89600000   21.86800000
 O                  7.89200000    7.51400000   22.98700000
 H                  8.45605996    7.26303549   23.72215521
 H                  8.49657722   11.53390866   20.67670375
 H                  7.22653506   10.96250360   19.64985688
 H                  9.71313534    9.46373045   20.22694811
 H                  7.19199918    8.40885843   19.01967295
 H                  9.91416377    7.24595594   19.49398957
 H                  7.41299243    6.49328268   20.93244033
 H                  9.73748063    7.96572527   22.14383706
 H                  8.14862986    7.64531538   11.69941147
 H                  8.29248005    4.96011858   15.12644607
 H                  9.51267431    5.66873551   14.13713016
 H                  6.94768809    6.95404103   14.86508126
 H                  9.30919490    8.05186156   13.41904952
 H                  6.75523509    9.33971537   14.27255064
 H                  9.40001534    9.75481426   15.55925010
 H                  7.09507792    8.39712783   16.87476063

 1 2 1.0 38 1.0
 2 3 1.0 12 1.0 42 1.0
 3 4 1.0 6 1.0 43 1.0
 4 5 1.0
 5
 6 7 1.0 14 1.0 44 1.0
 7 8 1.0
 8
 9 10 1.0 12 1.0 39 1.0 40 1.0
 10 11 1.0
 11
 12 13 1.0 41 1.0
 13 14 1.0
 14 15 1.0 45 1.0
 15 16 1.0
 16 17 1.0 26 1.0 34 1.0
 17 18 1.0 20 1.0 35 1.0
 18 19 1.0
 19
 20 21 1.0 28 1.0 36 1.0
 21 22 1.0
 22
 23 24 1.0 26 1.0 31 1.0 32 1.0
 24 25 1.0
 25
 26 27 1.0 33 1.0
 27 28 1.0
 28 29 1.0 37 1.0
 29 30 1.0
 30
 31
 32
 33
 34
 35
 36
 37
 38
 39
 40
 41
 42
 43
 44
 45

