# freq=raman b3lyp/6-31+g(d,p) geom=connectivity

400 9000.com

0 1
 O                  9.76200000    7.75000000   22.42800000
 C                 10.53700000    7.73800000   23.63600000
 C                 10.45800000    9.20000000   24.04200000
 O                 11.20500000   10.06200000   23.17000000
 H                 10.90300000    9.79600000   22.25400000
 C                 10.95300000    9.48600000   25.45000000
 O                 10.43000000   10.71700000   25.96800000
 H                 10.81700000   10.92700000   26.86600000
 C                 10.28000000    5.41400000   24.46200000
 O                  9.59800000    4.87400000   23.32000000
 H                  9.60100000    3.89400000   23.52100000
 C                  9.99900000    6.87600000   24.76700000
 O                 10.73800000    7.13700000   25.96800000
 C                 10.44900000    8.45700000   26.44900000
 O                 11.24900000    8.47600000   27.64000000
 C                 10.47800000    8.29300000   28.83700000
 C                 10.41000000    6.83200000   29.25400000
 O                  9.85700000    6.04100000   28.19200000
 H                 10.10800000    6.36600000   27.28000000
 C                  9.81500000    6.50700000   30.61400000
 O                  9.84800000    5.13400000   31.03200000
 H                  9.66600000    4.96600000   32.00100000
 C                 11.25900000   10.56800000   29.77600000
 O                 11.50200000   11.31100000   28.57300000
 H                 11.48400000   12.29200000   28.76500000
 C                 11.18300000    9.06000000   29.94400000
 O                 10.55000000    8.78100000   31.20100000
 C                 10.54800000    7.40300000   31.59900000
 O                  9.85900000    7.28200000   32.85200000
 H                 10.35102085    7.75753002   21.66997775
 H                 10.00480927    4.83561062   25.31910897
 H                 11.33258039    5.30226768   24.30550589
 H                  8.95264347    7.04318866   24.91561350
 H                 11.55059720    7.47190401   23.41986662
 H                  9.43071273    9.49498636   23.99136487
 H                 12.02262794    9.51140660   25.46227062
 H                  9.40874607    8.58205767   26.66609986
 H                 10.49931304    7.21324827   33.56394972
 H                 12.02334071   10.88362829   30.45501551
 H                 10.32314975   10.93455854   30.14304108
 H                 12.18650033    8.69271207   29.99865046
 H                  9.48999524    8.67942833   28.69764530
 H                 11.43162969    6.52226514   29.32636780
 H                  8.78955959    6.81216341   30.59827554
 H                 11.55593488    7.06177133   31.71093867

 1 2 1.0 30 1.0
 2 3 1.0 12 1.0 34 1.0
 3 4 1.0 6 1.0 35 1.0
 4 5 1.0
 5
 6 7 1.0 14 1.0 36 1.0
 7 8 1.0
 8
 9 10 1.0 12 1.0 31 1.0 32 1.0
 10 11 1.0
 11
 12 13 1.0 33 1.0
 13 14 1.0
 14 15 1.0 37 1.0
 15 16 1.0
 16 17 1.0 26 1.0 42 1.0
 17 18 1.0 20 1.0 43 1.0
 18 19 1.0
 19
 20 21 1.0 28 1.0 44 1.0
 21 22 1.0
 22
 23 24 1.0 26 1.0 39 1.0 40 1.0
 24 25 1.0
 25
 26 27 1.0 41 1.0
 27 28 1.0
 28 29 1.0 45 1.0
 29 38 1.0
 30
 31
 32
 33
 34
 35
 36
 37
 38
 39
 40
 41
 42
 43
 44
 45

