# freq=raman b3lyp/6-31+g(2d,p) geom=connectivity

320 7143/7143.com

0 1
O           7.39700         7.46000        12.14500
C           7.94700         7.85700        13.41000
C           7.40900         9.17900        13.93300
O           7.76800        10.29500        13.10500
H           7.62600        10.08300        12.13800
C           7.89100         9.66100        15.29200
O           7.16400        10.78700        15.80500
H           7.53700        11.19900        16.63600
C           8.39200         5.48300        14.21300
O           8.20000         4.82900        12.95000
H           8.21300         3.83600        13.07300
C           7.81900         6.85200        14.54200
O           8.38300         7.34800        15.76500
C           7.75200         8.52400        16.29100
O           8.61700         8.85800        17.38600
C           8.14300         8.38800        18.65700
C           8.64800         7.03400        19.12800
O           8.41800         6.00700        18.15300
H           8.70100         6.41400        17.28400
C           8.30400         6.67000        20.56300
O           9.01200         5.56800        21.15100
H           8.34200         5.21000        21.80200
C           7.88000        10.78800        19.51100
O           8.06500        11.66600        18.39100
H           7.84900        12.60000        18.67800
C           8.59500         9.45300        19.64200
O           8.17500         9.06300        20.95700
C           8.70100         7.82800        21.46400
O           7.98500         7.74100        22.70500

