# freq=raman b3lyp/6-31+g(2d,p) geom=connectivity

320 7143/7143.com

0 1
 O                  7.39700000    7.46000000   12.14500000
 C                  7.94700000    7.85700000   13.41000000
 C                  7.40900000    9.17900000   13.93300000
 O                  7.76800000   10.29500000   13.10500000
 H                  7.62600000   10.08300000   12.13800000
 C                  7.89100000    9.66100000   15.29200000
 O                  7.16400000   10.78700000   15.80500000
 H                  7.53700000   11.19900000   16.63600000
 C                  8.39200000    5.48300000   14.21300000
 O                  8.20000000    4.82900000   12.95000000
 H                  8.21300000    3.83600000   13.07300000
 C                  7.81900000    6.85200000   14.54200000
 O                  8.38300000    7.34800000   15.76500000
 C                  7.75200000    8.52400000   16.29100000
 O                  8.61700000    8.85800000   17.38600000
 C                  8.14300000    8.38800000   18.65700000
 C                  8.64800000    7.03400000   19.12800000
 O                  8.41800000    6.00700000   18.15300000
 H                  8.70100000    6.41400000   17.28400000
 C                  8.30400000    6.67000000   20.56300000
 O                  9.01200000    5.56800000   21.15100000
 H                  8.34200000    5.21000000   21.80200000
 C                  7.88000000   10.78800000   19.51100000
 O                  8.06500000   11.66600000   18.39100000
 H                  7.84900000   12.60000000   18.67800000
 C                  8.59500000    9.45300000   19.64200000
 O                  8.17500000    9.06300000   20.95700000
 C                  8.70100000    7.82800000   21.46400000
 O                  7.98500000    7.74100000   22.70500000
 H                  8.60982678    7.69003073   23.43204445
 H                  8.12986220   11.35326600   20.38446621
 H                  6.83214454   10.57752593   19.56198625
 H                  9.65641324    9.58340434   19.60599112
 H                  7.07336421    8.36728699   18.63828489
 H                  9.71217601    7.14470878   19.14115274
 H                  7.25066173    6.50044619   20.64442474
 H                  9.75890626    7.87729760   21.61665679
 H                  8.11040189    7.26764806   11.53209016
 H                  8.01978531    4.81280836   14.95945789
 H                  9.44971657    5.55604096   14.35722438
 H                  6.77214438    6.71532688   14.71610848
 H                  8.99521227    7.99822167   13.24811273
 H                  6.34143469    9.11298998   13.96210309
 H                  8.92466771    9.92645442   15.21476648
 H                  6.74106005    8.35433035   16.59777783

 1 2 1.0 38 1.0
 2 3 1.0 12 1.0 42 1.0
 3 4 1.0 6 1.0 43 1.0
 4 5 1.0
 5
 6 7 1.0 14 1.0 44 1.0
 7 8 1.0
 8
 9 10 1.0 12 1.0 39 1.0 40 1.0
 10 11 1.0
 11
 12 13 1.0 41 1.0
 13 14 1.0
 14 15 1.0 45 1.0
 15 16 1.0
 16 17 1.0 26 1.0 34 1.0
 17 18 1.0 20 1.0 35 1.0
 18 19 1.0
 19
 20 21 1.0 28 1.0 36 1.0
 21 22 1.0
 22
 23 24 1.0 26 1.0 31 1.0 32 1.0
 24 25 1.0
 25
 26 27 1.0 33 1.0
 27 28 1.0
 28 29 1.0 37 1.0
 29 30 1.0
 30
 31
 32
 33
 34
 35
 36
 37
 38
 39
 40
 41
 42
 43
 44
 45

