# freq=raman b3lyp/6-31+g(2d,p) geom=connectivity

550 5703/5703.com

0 1
 O                  9.42200000    7.67800000   11.09500000
 C                  9.95600000    7.66000000   12.42700000
 C                 10.09300000    9.08000000   12.95200000
 O                 11.12500000    9.87600000   12.35100000
 H                 11.15600000    9.79100000   11.35500000
 C                 10.56200000    9.28500000   14.38300000
 O                 10.41800000   10.57300000   15.00000000
 H                 10.54300000   11.33500000   14.36500000
 C                  8.56500000    5.63600000   13.02300000
 O                  9.59200000    4.63400000   12.98000000
 H                  9.28700000    3.73500000   12.66700000
 C                  8.93900000    7.06400000   13.38600000
 O                  9.37700000    7.13200000   14.75100000
 C                  9.74200000    8.40200000   15.31000000
 O                 10.48700000    7.87200000   16.41600000
 C                  9.87500000    8.00000000   17.70800000
 C                  9.27300000    6.62600000   17.95300000
 O                  8.21500000    6.50100000   16.99100000
 H                  8.70100000    6.62200000   16.12600000
 C                  8.89100000    6.59100000   19.42300000
 O                  8.80400000    5.18300000   19.69000000
 H                  8.12600000    4.97000000   20.39400000
 C                 11.29600000   10.03000000   18.24800000
 O                 11.81700000   10.82100000   19.32700000
 H                 12.50000000   10.20600000   19.72000000
 C                 10.88300000    8.62600000   18.65800000
 O                 10.18100000    8.70600000   19.90700000
 C                  9.67800000    7.45400000   20.39600000
 O                  9.12900000    7.92200000   21.63600000
 H                  9.84273709    8.14869898   22.23665542
 H                 10.53576683    6.87038637   20.65778464
 H                  7.88746608    6.95906875   19.47142586
 H                 10.01304070    5.87693790   17.76287970
 H                  9.06187109    8.68910511   17.61389620
 H                 11.74337501    7.99733998   18.75516696
 H                 10.44280362   10.53045622   17.83995649
 H                 12.04490533    9.95621209   17.48734492
 H                 10.14304426    7.68656401   10.46126360
 H                  8.04935984    7.65351679   13.30912132
 H                 10.88782751    7.13589501   12.47072024
 H                  9.15591864    9.58043043   12.82414106
 H                 11.58838253    8.98977848   14.44844584
 H                  8.87382305    8.92174122   15.65790496
 H                  8.10287939    5.66185806   12.05828455
 H                  7.82882274    5.30933336   13.72743733

 1 2 1.0 38 1.0
 2 3 1.0 12 1.0 40 1.0
 3 4 1.0 6 1.0 41 1.0
 4 5 1.0
 5
 6 7 1.0 14 1.0 42 1.0
 7 8 1.0
 8
 9 10 1.0 12 1.0 44 1.0 45 1.0
 10 11 1.0
 11
 12 13 1.0 39 1.0
 13 14 1.0
 14 15 1.0 43 1.0
 15 16 1.0
 16 17 1.0 26 1.0 34 1.0
 17 18 1.0 20 1.0 33 1.0
 18 19 1.0
 19
 20 21 1.0 28 1.0 32 1.0
 21 22 1.0
 22
 23 24 1.0 26 1.0 36 1.0 37 1.0
 24 25 1.0
 25
 26 27 1.0 35 1.0
 27 28 1.0
 28 29 1.0 31 1.0
 29 30 1.0
 30
 31
 32
 33
 34
 35
 36
 37
 38
 39
 40
 41
 42
 43
 44
 45

