# freq=raman b3lyp/6-31+g(2d,p) geom=connectivity

550 5703/5703.com

0 1
O           9.42200         7.67800        11.09500
C           9.95600         7.66000        12.42700
C          10.09300         9.08000        12.95200
O          11.12500         9.87600        12.35100
H          11.15600         9.79100        11.35500
C          10.56200         9.28500        14.38300
O          10.41800        10.57300        15.00000
H          10.54300        11.33500        14.36500
C           8.56500         5.63600        13.02300
O           9.59200         4.63400        12.98000
H           9.28700         3.73500        12.66700
C           8.93900         7.06400        13.38600
O           9.37700         7.13200        14.75100
C           9.74200         8.40200        15.31000
O          10.48700         7.87200        16.41600
C           9.87500         8.00000        17.70800
C           9.27300         6.62600        17.95300
O           8.21500         6.50100        16.99100
H           8.70100         6.62200        16.12600
C           8.89100         6.59100        19.42300
O           8.80400         5.18300        19.69000
H           8.12600         4.97000        20.39400
C          11.29600        10.03000        18.24800
O          11.81700        10.82100        19.32700
H          12.50000        10.20600        19.72000
C          10.88300         8.62600        18.65800
O          10.18100         8.70600        19.90700
C           9.67800         7.45400        20.39600
O           9.12900         7.92200        21.63600

