# freq=raman b3lyp/6-31+g(2d,p) geom=connectivity

483 8000/8000.com

0 1
O           7.75400         7.78700        12.04900
C           8.38800         8.12300        13.29200
C           7.77200         9.41700        13.80000
O           8.02200        10.42200        12.80700
H           7.97100        10.00500        11.89900
C           8.26000         9.84700        15.17300
O           7.60200        11.02100        15.67100
H           8.06400        11.22800        16.53400
C           8.56100         5.65800        13.88100
O           7.83600         4.88200        12.91500
H           8.09600         3.92300        13.02200
C           8.08100         7.03500        14.30800
O           8.59500         7.40600        15.59600
C           7.98900         8.62900        16.04100
O           8.54400         8.79700        17.35300
C           7.99100         8.46300        18.63500
C           8.59700         7.18800        19.19900
O           8.57800         6.08600        18.28000
H           8.78800         6.53100        17.41000
C           7.98600         6.76800        20.52600
O           8.71400         5.65700        21.06800
H           8.35000         5.35000        21.94800
C           7.74400        10.97400        19.31700
O           8.54500        11.61500        18.31400
H           8.35200        12.58800        18.44300
C           8.12800         9.55100        19.68700
O           7.50500         9.13500        20.91200
C           8.11200         7.95800        21.46300
O           7.49400         7.57400        22.70100

