# freq=raman b3lyp/6-31+g(2d,p) geom=connectivity

483 8000/8000.com

0 1
 O                  7.75400000    7.78700000   12.04900000
 C                  8.38800000    8.12300000   13.29200000
 C                  7.77200000    9.41700000   13.80000000
 O                  8.02200000   10.42200000   12.80700000
 H                  7.97100000   10.00500000   11.89900000
 C                  8.26000000    9.84700000   15.17300000
 O                  7.60200000   11.02100000   15.67100000
 H                  8.06400000   11.22800000   16.53400000
 C                  8.56100000    5.65800000   13.88100000
 O                  7.83600000    4.88200000   12.91500000
 H                  8.09600000    3.92300000   13.02200000
 C                  8.08100000    7.03500000   14.30800000
 O                  8.59500000    7.40600000   15.59600000
 C                  7.98900000    8.62900000   16.04100000
 O                  8.54400000    8.79700000   17.35300000
 C                  7.99100000    8.46300000   18.63500000
 C                  8.59700000    7.18800000   19.19900000
 O                  8.57800000    6.08600000   18.28000000
 H                  8.78800000    6.53100000   17.41000000
 C                  7.98600000    6.76800000   20.52600000
 O                  8.71400000    5.65700000   21.06800000
 H                  8.35000000    5.35000000   21.94800000
 C                  7.74400000   10.97400000   19.31700000
 O                  8.54500000   11.61500000   18.31400000
 H                  8.35200000   12.58800000   18.44300000
 C                  8.12800000    9.55100000   19.68700000
 O                  7.50500000    9.13500000   20.91200000
 C                  8.11200000    7.95800000   21.46300000
 O                  7.49400000    7.57400000   22.70100000
 H                  8.17326972    7.37302895   23.34892228
 H                  9.14929581    8.15301224   21.63874878
 H                  6.95651373    6.50792764   20.39401365
 H                  9.62686333    7.40371611   19.39328864
 H                  6.94534695    8.28561739   18.49341925
 H                  9.17496593    9.59603039   19.90318188
 H                  7.78830740   11.56932541   20.20498903
 H                  6.73073520   10.96369619   18.97336025
 H                  8.42464496    7.60775401   11.38589653
 H                  8.62992720    5.06397003   14.76828656
 H                  9.55369682    5.77911623   13.50049523
 H                  7.01614690    6.98112300   14.39791745
 H                  9.44435666    8.23220584   13.16129155
 H                  6.71351314    9.27301157   13.86142399
 H                  9.31446192   10.02424011   15.13304994
 H                  6.93173069    8.48638874   16.12311968

 1 2 1.0 38 1.0
 2 3 1.0 12 1.0 42 1.0
 3 4 1.0 6 1.0 43 1.0
 4 5 1.0
 5
 6 7 1.0 14 1.0 44 1.0
 7 8 1.0
 8
 9 10 1.0 12 1.0 39 1.0 40 1.0
 10 11 1.0
 11
 12 13 1.0 41 1.0
 13 14 1.0
 14 15 1.0 45 1.0
 15 16 1.0
 16 17 1.0 26 1.0 34 1.0
 17 18 1.0 20 1.0 33 1.0
 18 19 1.0
 19
 20 21 1.0 28 1.0 32 1.0
 21 22 1.0
 22
 23 24 1.0 26 1.0 36 1.0 37 1.0
 24 25 1.0
 25
 26 27 1.0 35 1.0
 27 28 1.0
 28 29 1.0 31 1.0
 29 30 1.0
 30
 31
 32
 33
 34
 35
 36
 37
 38
 39
 40
 41
 42
 43
 44
 45

