# freq=raman b3lyp/6-31+g(2d,p) geom=connectivity

290 7752/7752.com

0 1
 O                  7.28000000    7.82700000   12.20200000
 C                  7.87500000    8.04700000   13.48900000
 C                  7.54500000    9.45000000   13.97400000
 O                  8.04000000   10.48500000   13.11200000
 H                  7.97500000   10.16800000   12.16600000
 C                  8.14600000    9.66300000   15.35300000
 O                  7.57500000   10.84600000   15.93000000
 H                  7.80500000   10.92200000   16.90000000
 C                  8.32300000    5.61700000   14.33600000
 O                  8.07600000    5.00900000   13.05900000
 H                  8.25400000    4.02700000   13.11800000
 C                  7.63600000    6.96000000   14.52400000
 O                  8.18000000    7.30000000   15.80700000
 C                  7.69700000    8.55900000   16.29700000
 O                  8.45200000    8.78300000   17.49700000
 C                  8.01600000    8.34800000   18.79300000
 C                  8.65600000    7.04700000   19.24800000
 O                  8.31000000    6.09900000   18.22700000
 H                  8.43600000    6.64900000   17.40100000
 C                  8.20800000    6.70500000   20.65900000
 O                  8.76400000    5.43200000   21.02000000
 H                  8.30600000    5.23500000   21.88700000
 C                  7.82000000   10.76700000   19.50100000
 O                  8.31000000   11.49200000   18.36400000
 H                  8.34000000   12.46000000   18.61300000
 C                  8.41300000    9.40300000   19.81300000
 O                  8.05100000    9.13000000   21.17500000
 C                  8.58200000    7.85800000   21.57500000
 O                  7.73500000    7.60700000   22.70600000
 H                  8.27678726    7.43529850   23.47968286
 H                  9.62041257    7.88663790   21.83147456
 H                  7.14190586    6.61366157   20.65823727
 H                  9.71870359    7.17172110   19.25039439
 H                  6.95162076    8.23848443   18.79122155
 H                  9.47818146    9.49746613   19.77605926
 H                  7.96553495   11.38475424   20.36245184
 H                  6.76638124   10.63600420   19.36823100
 H                  7.97091259    7.71469512   11.54501643
 H                  7.98310562    4.95093863   15.10133265
 H                  9.37798876    5.75589693   14.44827800
 H                  6.58250028    6.80106731   14.62288752
 H                  8.93125566    8.04468582   13.31806544
 H                  6.48163371    9.54489711   14.04574033
 H                  9.21313688    9.72788961   15.30931685
 H                  6.64073080    8.56141055   16.46784952

 1 2 1.0 38 1.0
 2 3 1.0 12 1.0 42 1.0
 3 4 1.0 6 1.0 43 1.0
 4 5 1.0
 5
 6 7 1.0 14 1.0 44 1.0
 7 8 1.0
 8
 9 10 1.0 12 1.0 39 1.0 40 1.0
 10 11 1.0
 11
 12 13 1.0 41 1.0
 13 14 1.0
 14 15 1.0 45 1.0
 15 16 1.0
 16 17 1.0 26 1.0 34 1.0
 17 18 1.0 20 1.0 33 1.0
 18 19 1.0
 19
 20 21 1.0 28 1.0 32 1.0
 21 22 1.0
 22
 23 24 1.0 26 1.0 36 1.0 37 1.0
 24 25 1.0
 25
 26 27 1.0 35 1.0
 27 28 1.0
 28 29 1.0 31 1.0
 29 30 1.0
 30
 31
 32
 33
 34
 35
 36
 37
 38
 39
 40
 41
 42
 43
 44
 45

