# freq=raman b3lyp/6-31+g(2d,p) geom=connectivity

423 5397/5397.com

0 1
 O                  7.37800000    7.70800000   12.24400000
 C                  8.07900000    7.86000000   13.48700000
 C                  7.58900000    9.18100000   14.05900000
 O                  7.84200000   10.19900000   13.08000000
 H                  7.67400000    9.90100000   12.14000000
 C                  8.13900000    9.67300000   15.38800000
 O                  7.32900000   10.77100000   15.83100000
 H                  7.69500000   11.17500000   16.66900000
 C                  8.29600000    5.47800000   14.22700000
 O                  8.03300000    4.76300000   13.01100000
 H                  8.33200000    3.81200000   13.09500000
 C                  7.72500000    6.84600000   14.56200000
 O                  8.31700000    7.18400000   15.82500000
 C                  7.90200000    8.47500000   16.29300000
 O                  8.64600000    8.70000000   17.49900000
 C                  8.06800000    8.38300000   18.77400000
 C                  8.70400000    7.07300000   19.21000000
 O                  8.33400000    6.01000000   18.32000000
 H                  8.50800000    6.44000000   17.43500000
 C                  8.22100000    6.72300000   20.60800000
 O                  8.78200000    5.52100000   21.15600000
 H                  8.26900000    5.31600000   21.98900000
 C                  8.18900000   10.84600000   19.51800000
 O                  8.38200000   11.56600000   18.29200000
 H                  8.29700000   12.54800000   18.45900000
 C                  8.62100000    9.40700000   19.75200000
 O                  8.10400000    9.13600000   21.06200000
 C                  8.51900000    7.86000000   21.57200000
 O                  7.70200000    7.67900000   22.73700000
 H                  8.26366580    7.55947554   23.50631491
 H                  8.66541770   11.42612632   20.28048254
 H                  7.13808652   10.87597147   19.71695366
 H                  9.68935150    9.34979970   19.76791230
 H                  9.55599632    7.87482413   21.83528479
 H                  7.15916526    6.59835014   20.56476359
 H                  9.76878532    7.17830781   19.21651876
 H                  6.99866908    8.34866927   18.75810072
 H                  8.01146550    7.62044414   11.52800040
 H                  7.99787821    4.82872934   15.02353688
 H                  9.35960399    5.57697215   14.28905704
 H                  6.66195015    6.78074391   14.66479424
 H                  9.13639015    7.88874392   13.32575526
 H                  6.52777970    9.10035741   14.16949092
 H                  9.17533152    9.93149780   15.32400108
 H                  6.86066674    8.43150339   16.53514269

 1 2 1.0 38 1.0
 2 3 1.0 12 1.0 42 1.0
 3 4 1.0 6 1.0 43 1.0
 4 5 1.0
 5
 6 7 1.0 14 1.0 44 1.0
 7 8 1.0
 8
 9 10 1.0 12 1.0 39 1.0 40 1.0
 10 11 1.0
 11
 12 13 1.0 41 1.0
 13 14 1.0
 14 15 1.0 45 1.0
 15 16 1.0
 16 17 1.0 26 1.0 37 1.0
 17 18 1.0 20 1.0 36 1.0
 18 19 1.0
 19
 20 21 1.0 28 1.0 35 1.0
 21 22 1.0
 22
 23 24 1.0 26 1.0 31 1.0 32 1.0
 24 25 1.0
 25
 26 27 1.0 33 1.0
 27 28 1.0
 28 29 1.0 34 1.0
 29 30 1.0
 30
 31
 32
 33
 34
 35
 36
 37
 38
 39
 40
 41
 42
 43
 44
 45

