# freq=raman b3lyp/6-31+g(2d,p) geom=connectivity

423 5397/5397.com

0 1
O           7.37800         7.70800        12.24400
C           8.07900         7.86000        13.48700
C           7.58900         9.18100        14.05900
O           7.84200        10.19900        13.08000
H           7.67400         9.90100        12.14000
C           8.13900         9.67300        15.38800
O           7.32900        10.77100        15.83100
H           7.69500        11.17500        16.66900
C           8.29600         5.47800        14.22700
O           8.03300         4.76300        13.01100
H           8.33200         3.81200        13.09500
C           7.72500         6.84600        14.56200
O           8.31700         7.18400        15.82500
C           7.90200         8.47500        16.29300
O           8.64600         8.70000        17.49900
C           8.06800         8.38300        18.77400
C           8.70400         7.07300        19.21000
O           8.33400         6.01000        18.32000
H           8.50800         6.44000        17.43500
C           8.22100         6.72300        20.60800
O           8.78200         5.52100        21.15600
H           8.26900         5.31600        21.98900
C           8.18900        10.84600        19.51800
O           8.38200        11.56600        18.29200
H           8.29700        12.54800        18.45900
C           8.62100         9.40700        19.75200
O           8.10400         9.13600        21.06200
C           8.51900         7.86000        21.57200
O           7.70200         7.67900        22.73700

