# freq=raman b3lyp/6-31+g(2d,p) geom=connectivity

280 6474/6474.com

0 1
O           7.71900         7.47000        12.05400
C           8.17000         7.87800        13.35400
C           7.68200         9.24400        13.80700
O           7.93700        10.32900        12.90300
H           7.81100         9.89800        12.01000
C           8.09200         9.60900        15.22400
O           7.46500        10.81100        15.69700
H           7.85900        11.04000        16.58700
C           8.34400         5.41200        14.07900
O           7.94400         4.68400        12.90900
H           7.96400         3.71600        13.15800
C           7.82800         6.81000        14.38000
O           8.33900         7.23200        15.65200
C           7.83300         8.46300        16.18800
O           8.72000         8.56500        17.31200
C           8.09800         8.31700        18.58100
C           8.55200         6.96200        19.09700
O           8.38700         5.85700        18.19600
H           8.83300         6.18000        17.36100
C           8.02900         6.59800        20.47700
O           8.81300         5.46800        20.88800
H           8.65400         5.24100        21.84900
C           8.03600        10.72100        19.16600
O           8.57400        11.34300        17.99000
H           8.39800        12.32400        18.07900
C           8.43500         9.33900        19.65500
O           7.81400         8.87200        20.86200
C           8.35900         7.69500        21.47600
O           7.52500         7.57200        22.63600

