# freq=raman b3lyp/6-31+g(2d,p) geom=connectivity

280 6474/6474.com

0 1
 O                  7.71900000    7.47000000   12.05400000
 C                  8.17000000    7.87800000   13.35400000
 C                  7.68200000    9.24400000   13.80700000
 O                  7.93700000   10.32900000   12.90300000
 H                  7.81100000    9.89800000   12.01000000
 C                  8.09200000    9.60900000   15.22400000
 O                  7.46500000   10.81100000   15.69700000
 H                  7.85900000   11.04000000   16.58700000
 C                  8.34400000    5.41200000   14.07900000
 O                  7.94400000    4.68400000   12.90900000
 H                  7.96400000    3.71600000   13.15800000
 C                  7.82800000    6.81000000   14.38000000
 O                  8.33900000    7.23200000   15.65200000
 C                  7.83300000    8.46300000   16.18800000
 O                  8.72000000    8.56500000   17.31200000
 C                  8.09800000    8.31700000   18.58100000
 C                  8.55200000    6.96200000   19.09700000
 O                  8.38700000    5.85700000   18.19600000
 H                  8.83300000    6.18000000   17.36100000
 C                  8.02900000    6.59800000   20.47700000
 O                  8.81300000    5.46800000   20.88800000
 H                  8.65400000    5.24100000   21.84900000
 C                  8.03600000   10.72100000   19.16600000
 O                  8.57400000   11.34300000   17.99000000
 H                  8.39800000   12.32400000   18.07900000
 C                  8.43500000    9.33900000   19.65500000
 O                  7.81400000    8.87200000   20.86200000
 C                  8.35900000    7.69500000   21.47600000
 O                  7.52500000    7.57200000   22.63600000
 H                  8.07516145    7.48904599   23.41833050
 H                  8.47769285    7.29386501   11.49278558
 H                  8.08926380    4.80308233   14.92115720
 H                  9.41146750    5.47898244   14.04856168
 H                  6.76190770    6.75642360   14.45400521
 H                  9.23754953    7.93279442   13.30671815
 H                  6.61608466    9.15658744   13.83991712
 H                  9.14752147    9.78412441   15.21371116
 H                  8.23179464   11.39264142   19.97560624
 H                  6.97472756   10.69581614   19.03196048
 H                  9.49476186    9.33258642   19.80252512
 H                  7.03676279    8.29689379   18.44582857
 H                  9.61034196    7.06019392   19.22016757
 H                  6.98333108    6.37161804   20.46190968
 H                  9.40190384    7.77763395   21.70055114
 H                  6.80697809    8.38982635   16.48266023

 1 2 1.0 31 1.0
 2 3 1.0 12 1.0 35 1.0
 3 4 1.0 6 1.0 36 1.0
 4 5 1.0
 5
 6 7 1.0 14 1.0 37 1.0
 7 8 1.0
 8
 9 10 1.0 12 1.0 32 1.0 33 1.0
 10 11 1.0
 11
 12 13 1.0 34 1.0
 13 14 1.0
 14 15 1.0 45 1.0
 15 16 1.0
 16 17 1.0 26 1.0 41 1.0
 17 18 1.0 20 1.0 42 1.0
 18 19 1.0
 19
 20 21 1.0 28 1.0 43 1.0
 21 22 1.0
 22
 23 24 1.0 26 1.0 38 1.0 39 1.0
 24 25 1.0
 25
 26 27 1.0 40 1.0
 27 28 1.0
 28 29 1.0 44 1.0
 29 30 1.0
 30
 31
 32
 33
 34
 35
 36
 37
 38
 39
 40
 41
 42
 43
 44
 45

