# freq=raman b3lyp/6-31+g(2d,p) geom=connectivity

350 7524/7524.com

0 1
 O                  7.77700000    7.58800000   12.31100000
 C                  8.44900000    7.85000000   13.55100000
 C                  7.87100000    9.20600000   13.92200000
 O                  8.51300000   10.15900000   13.06300000
 H                  8.31900000    9.93600000   12.10700000
 C                  8.18600000    9.57700000   15.36200000
 O                  7.66400000   10.74000000   16.02300000
 H                  8.15400000   10.79300000   16.89200000
 C                  8.80700000    5.55900000   14.33100000
 O                  8.50800000    4.70100000   13.22000000
 H                  8.85800000    3.81000000   13.50900000
 C                  8.10000000    6.86500000   14.65500000
 O                  8.48100000    7.29700000   15.96900000
 C                  7.83100000    8.50800000   16.38200000
 O                  8.71200000    8.81700000   17.47200000
 C                  8.16700000    8.43100000   18.74200000
 C                  8.59100000    7.09700000   19.33400000
 O                  8.51400000    6.02900000   18.37800000
 H                  8.92300000    6.15600000   17.47400000
 C                  7.86700000    6.76700000   20.62900000
 O                  8.45900000    5.55400000   21.11800000
 H                  8.06000000    5.40700000   22.02300000
 C                  7.88600000   10.81600000   19.59700000
 O                  8.50200000   11.63000000   18.58900000
 H                  8.30900000   12.60700000   18.68400000
 C                  8.44500000    9.42700000   19.85600000
 O                  7.78400000    9.10200000   21.08800000
 C                  8.20900000    7.84800000   21.64100000
 O                  7.44000000    7.66600000   22.83900000
 H                  8.03273263    7.55257746   23.58559451
 H                  7.93031948   11.35741814   20.51884716
 H                  6.85498299   10.70367674   19.33377496
 H                  9.49995603    9.49167754   20.02268712
 H                  7.10504178    8.39035496   18.61753024
 H                  9.62565869    7.19779854   19.58741871
 H                  6.81113040    6.66913712   20.48595371
 H                  9.25743935    7.85826790   21.85447013
 H                  8.42673859    7.44190441   11.61955524
 H                  8.70980452    4.94958715   15.20511041
 H                  9.84477163    5.80335001   14.24031860
 H                  7.04346090    6.69625808   14.64270018
 H                  9.50769843    7.91188297   13.40877437
 H                  6.81345321    9.21506569   13.75948049
 H                  9.25051639    9.67936458   15.39701941
 H                  6.79593637    8.42005997   16.63853429

 1 2 1.0 38 1.0
 2 3 1.0 12 1.0 42 1.0
 3 4 1.0 6 1.0 43 1.0
 4 5 1.0
 5
 6 7 1.0 14 1.0 44 1.0
 7 8 1.0
 8
 9 10 1.0 12 1.0 39 1.0 40 1.0
 10 11 1.0
 11
 12 13 1.0 41 1.0
 13 14 1.0
 14 15 1.0 45 1.0
 15 16 1.0
 16 17 1.0 26 1.0 34 1.0
 17 18 1.0 20 1.0 35 1.0
 18 19 1.0
 19
 20 21 1.0 28 1.0 36 1.0
 21 22 1.0
 22
 23 24 1.0 26 1.0 31 1.0 32 1.0
 24 25 1.0
 25
 26 27 1.0 33 1.0
 27 28 1.0
 28 29 1.0 37 1.0
 29 30 1.0
 30
 31
 32
 33
 34
 35
 36
 37
 38
 39
 40
 41
 42
 43
 44
 45

