# freq=raman b3lyp/6-31+g(2d,p) geom=connectivity

300 9156/9156.com

0 1
 O                  7.39300000    7.67100000   12.29500000
 C                  7.98500000    7.93100000   13.57600000
 C                  7.40300000    9.24500000   14.07200000
 O                  7.71400000   10.29700000   13.14800000
 H                  7.62100000   10.00200000   12.19700000
 C                  7.96700000    9.63000000   15.43000000
 O                  7.24500000   10.72200000   16.01800000
 H                  7.88200000   11.09700000   16.69100000
 C                  8.30400000    5.43100000   14.20500000
 O                  7.53300000    4.76100000   13.19600000
 H                  7.68300000    3.78000000   13.32000000
 C                  7.76800000    6.80500000   14.57300000
 O                  8.35800000    7.19900000   15.82000000
 C                  7.95600000    8.45200000   16.39200000
 O                  8.89600000    8.43600000   17.47600000
 C                  8.27800000    8.35200000   18.76800000
 C                  8.61200000    6.96000000   19.27900000
 O                  8.26500000    6.02900000   18.24400000
 H                  8.46500000    6.43600000   17.35300000
 C                  7.99800000    6.68300000   20.64200000
 O                  8.55700000    5.42500000   21.04600000
 H                  8.38100000    5.17800000   21.99900000
 C                  8.23800000   10.83400000   19.41300000
 O                  8.57800000   11.53800000   18.20900000
 H                  8.38300000   12.48200000   18.47300000
 C                  8.71400000    9.43000000   19.74800000
 O                  8.26200000    9.14900000   21.08100000
 C                  8.54700000    7.80800000   21.50400000
 O                  7.71200000    7.70200000   22.66500000
 H                  8.26149991    7.63042782   23.44891790
 H                  8.08545829    7.53874287   11.64337927
 H                  8.31600322    4.82262541   15.08513424
 H                  9.30778801    5.54009674   13.85087074
 H                  6.71345511    6.70912527   14.72676318
 H                  9.03847410    8.05955830   13.43974622
 H                  6.34003394    9.14969568   14.14894305
 H                  8.98243867    9.93807134   15.29260873
 H                  6.96895230    8.34730487   16.79159451
 H                  8.55640033   11.45731445   20.22232090
 H                  7.16903026   10.80205217   19.44739526
 H                  9.78384251    9.44292499   19.76103634
 H                  7.21781819    8.42107529   18.64094437
 H                  9.67414354    6.91407876   19.40000556
 H                  6.92847811    6.67000136   20.61277754
 H                  9.58002008    7.66850331   21.74547504

 1 2 1.0 31 1.0
 2 3 1.0 12 1.0 35 1.0
 3 4 1.0 6 1.0 36 1.0
 4 5 1.0
 5
 6 7 1.0 14 1.0 37 1.0
 7 8 1.0
 8
 9 10 1.0 12 1.0 32 1.0 33 1.0
 10 11 1.0
 11
 12 13 1.0 34 1.0
 13 14 1.0
 14 15 1.0 38 1.0
 15 16 1.0
 16 17 1.0 26 1.0 42 1.0
 17 18 1.0 20 1.0 43 1.0
 18 19 1.0
 19
 20 21 1.0 28 1.0 44 1.0
 21 22 1.0
 22
 23 24 1.0 26 1.0 39 1.0 40 1.0
 24 25 1.0
 25
 26 27 1.0 41 1.0
 27 28 1.0
 28 29 1.0 45 1.0
 29 30 1.0
 30
 31
 32
 33
 34
 35
 36
 37
 38
 39
 40
 41
 42
 43
 44
 45

