# freq=raman b3lyp/6-31+g(d,p) geom=connectivity

310 7000.com

0 1
 O                  7.74600000    7.40200000   12.18800000
 C                  8.39200000    7.74500000   13.42300000
 C                  7.83200000    9.06900000   13.91700000
 O                  8.11600000   10.15900000   13.02800000
 H                  7.93400000    9.77700000   12.12200000
 C                  8.45800000    9.41000000   15.26000000
 O                  7.92300000   10.63600000   15.78000000
 H                  8.20500000   10.87500000   16.70900000
 C                  8.76200000    5.29000000   14.10200000
 O                  8.12800000    4.39700000   13.17500000
 H                  8.41700000    3.44000000   13.19000000
 C                  8.25700000    6.67000000   14.49000000
 O                  8.84300000    7.09700000   15.72800000
 C                  8.22100000    8.28100000   16.24900000
 O                  8.97400000    8.61900000   17.42200000
 C                  8.28700000    8.27000000   18.63200000
 C                  8.81300000    6.98600000   19.25200000
 O                  8.46700000    5.97700000   18.29200000
 H                  8.84800000    6.21400000   17.39800000
 C                  8.34600000    6.59700000   20.64500000
 O                  8.93800000    5.44400000   21.26000000
 H                  8.41500000    5.25300000   22.09100000
 C                  7.87500000   10.70300000   19.19000000
 O                  8.57900000   11.43500000   18.17600000
 H                  8.18300000   12.35000000   18.10900000
 C                  8.43800000    9.37400000   19.66600000
 O                  7.86000000    9.00300000   20.92600000
 C                  8.44900000    7.83600000   21.52000000
 O                  7.65400000    7.58400000   22.68800000
 H                  8.23028713    7.42207378   23.43851518
 H                  9.46683826    8.02343855   21.79161013
 H                  7.30240373    6.37794980   20.55654758
 H                  9.88032440    7.05594336   19.28074999
 H                  7.24734947    8.14455841   18.41224746
 H                  9.48641317    9.51423758   19.82744119
 H                  7.79197623   11.34030117   20.04548482
 H                  6.88645250   10.51923115   18.82407263
 H                  7.18231808    8.13590944   16.46110515
 H                  9.51268464    9.52873179   15.12419476
 H                  6.77237443    8.97957801   14.03573226
 H                  8.41022380    7.21652024   11.52016470
 H                  9.43431538    7.88106447   13.22308728
 H                  7.20841058    6.56287695   14.67407849
 H                  8.85164435    4.74412417   15.01790582
 H                  9.75563623    5.43621424   13.73293572

 1 2 1.0 41 1.0
 2 3 1.0 12 1.0 42 1.0
 3 4 1.0 6 1.0 40 1.0
 4 5 1.0
 5
 6 7 1.0 14 1.0 39 1.0
 7 8 1.0
 8
 9 10 1.0 12 1.0 44 1.0 45 1.0
 10 11 1.0
 11
 12 13 1.0 43 1.0
 13 14 1.0
 14 15 1.0 38 1.0
 15 16 1.0
 16 17 1.0 26 1.0 34 1.0
 17 18 1.0 20 1.0 33 1.0
 18 19 1.0
 19
 20 21 1.0 28 1.0 32 1.0
 21 22 1.0
 22
 23 24 1.0 26 1.0 36 1.0 37 1.0
 24 25 1.0
 25
 26 27 1.0 35 1.0
 27 28 1.0
 28 29 1.0 31 1.0
 29 30 1.0
 30
 31
 32
 33
 34
 35
 36
 37
 38
 39
 40
 41
 42
 43
 44
 45

