# freq=raman b3lyp/6-31+g(2d,p) geom=connectivity

483 7807/7807.com

0 1
 O                  7.80600000    7.53100000   12.28300000
 C                  8.30600000    8.05100000   13.52400000
 C                  7.75900000    9.40900000   13.93400000
 O                  7.95200000   10.42000000   12.93400000
 H                  7.76600000    9.99800000   12.04700000
 C                  8.25900000    9.82200000   15.30800000
 O                  7.72900000   11.00300000   15.92700000
 H                  8.00400000   11.21900000   16.86400000
 C                  8.77300000    5.65600000   14.31000000
 O                  8.34200000    4.87400000   13.18700000
 H                  8.44300000    3.90300000   13.40400000
 C                  8.04100000    6.96600000   14.55400000
 O                  8.49700000    7.43000000   15.83300000
 C                  8.00500000    8.69600000   16.29700000
 O                  8.88000000    8.90100000   17.41600000
 C                  8.29500000    8.50800000   18.66500000
 C                  8.74800000    7.15800000   19.19800000
 O                  8.38500000    6.08400000   18.31900000
 H                  8.41200000    6.47000000   17.39700000
 C                  8.15900000    6.75400000   20.54000000
 O                  8.71200000    5.55600000   21.10500000
 H                  8.35500000    5.45000000   22.03300000
 C                  7.83200000   10.87200000   19.54400000
 O                  8.37500000   11.55700000   18.40700000
 H                  8.22700000   12.53900000   18.52800000
 C                  8.46800000    9.51400000   19.79200000
 O                  7.92900000    9.11700000   21.06100000
 C                  8.44900000    7.86600000   21.53400000
 O                  7.74900000    7.62200000   22.76300000
 H                  8.38308255    7.48163708   23.46999192
 H                  8.54294939    7.29323796   11.71557175
 H                  8.67212982    5.05382897   15.18870090
 H                  9.81111273    5.87867222   14.17718794
 H                  6.98893426    6.77709085   14.60269312
 H                  9.36683042    8.15114970   13.42648662
 H                  6.70034964    9.28574026   14.02869137
 H                  9.31841932    9.95172993   15.23249601
 H                  6.97945006    8.64318522   16.59759593
 H                  7.97651539   11.48118211   20.41170528
 H                  6.78173336   10.73536301   19.39178204
 H                  9.51877224    9.66856120   19.92195591
 H                  7.24263085    8.42693315   18.48936591
 H                  9.81398363    7.17426832   19.28918245
 H                  7.09998798    6.63908738   20.43906124
 H                  9.50111749    7.94298121   21.71294882

 1 2 1.0 31 1.0
 2 3 1.0 12 1.0 35 1.0
 3 4 1.0 6 1.0 36 1.0
 4 5 1.0
 5
 6 7 1.0 14 1.0 37 1.0
 7 8 1.0
 8
 9 10 1.0 12 1.0 32 1.0 33 1.0
 10 11 1.0
 11
 12 13 1.0 34 1.0
 13 14 1.0
 14 15 1.0 38 1.0
 15 16 1.0
 16 17 1.0 26 1.0 42 1.0
 17 18 1.0 20 1.0 43 1.0
 18 19 1.0
 19
 20 21 1.0 28 1.0 44 1.0
 21 22 1.0
 22
 23 24 1.0 26 1.0 39 1.0 40 1.0
 24 25 1.0
 25
 26 27 1.0 41 1.0
 27 28 1.0
 28 29 1.0 45 1.0
 29 30 1.0
 30
 31
 32
 33
 34
 35
 36
 37
 38
 39
 40
 41
 42
 43
 44
 45

