# freq=raman b3lyp/6-31+g(2d,p) geom=connectivity

483 7807/7807.com

0 1
O           7.80600         7.53100        12.28300
C           8.30600         8.05100        13.52400
C           7.75900         9.40900        13.93400
O           7.95200        10.42000        12.93400
H           7.76600         9.99800        12.04700
C           8.25900         9.82200        15.30800
O           7.72900        11.00300        15.92700
H           8.00400        11.21900        16.86400
C           8.77300         5.65600        14.31000
O           8.34200         4.87400        13.18700
H           8.44300         3.90300        13.40400
C           8.04100         6.96600        14.55400
O           8.49700         7.43000        15.83300
C           8.00500         8.69600        16.29700
O           8.88000         8.90100        17.41600
C           8.29500         8.50800        18.66500
C           8.74800         7.15800        19.19800
O           8.38500         6.08400        18.31900
H           8.41200         6.47000        17.39700
C           8.15900         6.75400        20.54000
O           8.71200         5.55600        21.10500
H           8.35500         5.45000        22.03300
C           7.83200        10.87200        19.54400
O           8.37500        11.55700        18.40700
H           8.22700        12.53900        18.52800
C           8.46800         9.51400        19.79200
O           7.92900         9.11700        21.06100
C           8.44900         7.86600        21.53400
O           7.74900         7.62200        22.76300

