# freq=raman b3lyp/6-31+g(2d,p) geom=connectivity

493 8000/8000.com

0 1
 O                  7.48100000    7.51300000   12.38100000
 C                  8.07900000    7.88600000   13.63100000
 C                  7.58800000    9.24100000   14.11200000
 O                  7.78500000   10.28800000   13.15000000
 H                  7.66600000    9.88900000   12.24100000
 C                  8.18400000    9.61600000   15.45900000
 O                  7.48700000   10.74300000   16.00800000
 H                  7.97800000   11.00900000   16.83800000
 C                  8.31600000    5.43900000   14.40400000
 O                  7.60100000    4.80900000   13.33100000
 H                  7.69800000    3.81700000   13.40700000
 C                  7.87000000    6.85500000   14.72800000
 O                  8.65700000    7.24000000   15.86500000
 C                  8.13900000    8.45100000   16.43500000
 O                  8.80500000    8.70000000   17.68200000
 C                  8.20300000    8.26000000   18.90800000
 C                  8.65800000    6.93300000   19.49100000
 O                  8.10000000    5.97200000   18.58300000
 H                  8.28800000    6.20800000   17.63000000
 C                  8.07800000    6.64900000   20.86800000
 O                  8.69200000    5.47000000   21.40900000
 H                  8.15900000    5.34800000   22.24600000
 C                  7.74300000   10.64800000   19.64000000
 O                  8.30600000   11.39200000   18.55000000
 H                  8.17200000   12.37500000   18.67700000
 C                  8.38100000    9.31300000   19.99000000
 O                  7.73000000    9.02700000   21.23600000
 C                  8.25500000    7.82400000   21.81600000
 O                  7.33100000    7.68400000   22.90500000
 H                  7.81745975    7.57847089   23.72586571
 H                  8.17041118    7.32197255   11.74082757
 H                  8.19943928    4.84021572   15.28307393
 H                  9.35443902    5.46390160   14.14724269
 H                  6.83640827    6.84230768   15.00445441
 H                  9.13318602    7.96792619   13.46704899
 H                  6.53163936    9.15111337   14.25664644
 H                  9.20707681    9.89171326   15.31001665
 H                  7.10810512    8.27495623   16.66119534
 H                  7.78399888   11.26682688   20.51193600
 H                  6.71318252   10.46693445   19.41286299
 H                  9.42614248    9.45953300   20.16636686
 H                  7.15271885    8.17358734   18.72268311
 H                  9.72592444    6.86769414   19.50413547
 H                  7.03022052    6.46177100   20.75843970
 H                  9.26472851    7.93862251   22.15097765

 1 2 1.0 31 1.0
 2 3 1.0 12 1.0 35 1.0
 3 4 1.0 6 1.0 36 1.0
 4 5 1.0
 5
 6 7 1.0 14 1.0 37 1.0
 7 8 1.0
 8
 9 10 1.0 12 1.0 32 1.0 33 1.0
 10 11 1.0
 11
 12 13 1.0 34 1.0
 13 14 1.0
 14 15 1.0 38 1.0
 15 16 1.0
 16 17 1.0 26 1.0 42 1.0
 17 18 1.0 20 1.0 43 1.0
 18 19 1.0
 19
 20 21 1.0 28 1.0 44 1.0
 21 22 1.0
 22
 23 24 1.0 26 1.0 39 1.0 40 1.0
 24 25 1.0
 25
 26 27 1.0 41 1.0
 27 28 1.0
 28 29 1.0 45 1.0
 29 30 1.0
 30
 31
 32
 33
 34
 35
 36
 37
 38
 39
 40
 41
 42
 43
 44
 45

