# freq=raman b3lyp/6-31+g(2d,p) geom=connectivity

493 8000.com

0 1
C           7.97700         7.92400        24.16300
C           7.45800         9.23100        24.74000
O           7.75100        10.26200        23.78600
H           7.59500         9.87100        22.87800
C           8.08600         9.52600        26.09300
O           7.54900        10.68700        26.74400
H           8.08200        10.92200        27.55600
C           8.29100         5.39200        24.95400
O           7.80700         4.72900        23.77600
H           7.79300         3.74100        23.92500
C           7.83900         6.82200        25.20100
O           8.49500         7.12500        26.44000
C           7.94900         8.32300        27.01200
O           8.80600         8.40100        28.16000
C           8.19400         8.10300        29.42400
C           8.70600         6.73400        29.84300
O           8.20300         5.83500        28.84400
H           8.56000         6.19100        27.98000
C           8.26100         6.46600        31.27100
O           8.92200         5.30200        31.78900
H           8.54100         5.12400        32.69700
C           8.25500        10.65000        30.08800
O           8.88200        11.30900        28.97800
H           8.98000        12.28600        29.17000
C           8.59300         9.20100        30.39700
O           7.90200         8.82100        31.59700
C           8.50300         7.65700        32.18300
O           7.67500         7.56400        33.35100
C           8.18900         7.87500        34.65400

