# freq=raman b3lyp/6-31+g(2d,p) geom=connectivity

310 7205/7205.com

0 1
 O                  7.41000000    7.66400000   12.32000000
 C                  7.95900000    8.20100000   13.53200000
 C                  7.50100000    9.59800000   13.92000000
 O                  7.89400000   10.49900000   12.87400000
 H                  7.54800000   10.02100000   12.06700000
 C                  8.13000000    9.98600000   15.24800000
 O                  7.56000000   11.20300000   15.75300000
 H                  8.05600000   11.27200000   16.61800000
 C                  8.30700000    5.84900000   14.49000000
 O                  8.03000000    5.00300000   13.36500000
 H                  8.05500000    4.01100000   13.49000000
 C                  7.64900000    7.21000000   14.64200000
 O                  8.29500000    7.64700000   15.84600000
 C                  7.82700000    8.92700000   16.29500000
 O                  8.44800000    9.17700000   17.56500000
 C                  7.92800000    8.92300000   18.87800000
 C                  8.30900000    7.49900000   19.25100000
 O                  7.78800000    6.51500000   18.34600000
 H                  7.93100000    6.84800000   17.41400000
 C                  7.98200000    7.05000000   20.66600000
 O                  8.56500000    5.79500000   21.04800000
 H                  8.06500000    5.52400000   21.87100000
 C                  7.96500000   11.19100000   19.79900000
 O                  8.34900000   11.79700000   18.55600000
 H                  8.11100000   12.76500000   18.62900000
 C                  8.55300000    9.79800000   19.95200000
 O                  8.06600000    9.46100000   21.26000000
 C                  8.40900000    8.12400000   21.65300000
 O                  7.50100000    8.00100000   22.75800000
 H                  7.99961102    7.91024466   23.57332234
 H                  8.30742292   11.80434216   20.60612944
 H                  6.89779857   11.12512381   19.83951475
 H                  9.62197319    9.80443759   19.90557945
 H                  6.86376825    9.03384103   18.88300566
 H                  9.37432100    7.44962089   19.16409274
 H                  6.91917527    6.94768834   20.73554080
 H                  9.43104463    8.03099045   21.95577715
 H                  8.12378159    7.40394849   11.73306811
 H                  8.06299877    5.28730130   15.36741551
 H                  9.36427167    6.01317090   14.50115927
 H                  6.59374189    7.11199797   14.78939713
 H                  9.02212921    8.23411794   13.41555483
 H                  6.43532901    9.60839806   14.01558880
 H                  9.18819698   10.09652722   15.13440911
 H                  6.76739658    8.87625111   16.43487548

 1 2 1.0 38 1.0
 2 3 1.0 12 1.0 42 1.0
 3 4 1.0 6 1.0 43 1.0
 4 5 1.0
 5
 6 7 1.0 14 1.0 44 1.0
 7 8 1.0
 8
 9 10 1.0 12 1.0 39 1.0 40 1.0
 10 11 1.0
 11
 12 13 1.0 41 1.0
 13 14 1.0
 14 15 1.0 45 1.0
 15 16 1.0
 16 17 1.0 26 1.0 34 1.0
 17 18 1.0 20 1.0 35 1.0
 18 19 1.0
 19
 20 21 1.0 28 1.0 36 1.0
 21 22 1.0
 22
 23 24 1.0 26 1.0 31 1.0 32 1.0
 24 25 1.0
 25
 26 27 1.0 33 1.0
 27 28 1.0
 28 29 1.0 37 1.0
 29 30 1.0
 30
 31
 32
 33
 34
 35
 36
 37
 38
 39
 40
 41
 42
 43
 44
 45

