# freq=raman b3lyp/6-31+g(2d,p) geom=connectivity

500 5777/5777.com

0 1
O           8.71900         7.02000        12.27500
C           9.46900         7.35600        13.45200
C           9.26900         8.77000        13.97200
O           9.35900         9.81100        12.98900
H           9.33600         9.46400        12.05100
C           9.97600         9.03800        15.29100
O           9.63700        10.31100        15.86100
H           9.37400        10.84600        15.05800
C           9.64400         5.00400        14.10800
O           9.57400         3.72700        14.75900
H          10.03300         3.04300        14.19200
C           9.08600         6.35400        14.52900
O           9.61400         6.72900        15.81000
C           9.31200         8.06100        16.24800
O           9.96600         8.00100        17.52400
C           9.40100         7.64700        18.79500
C           9.47200         6.16300        19.11300
O           8.91800         5.44200        18.00300
H           9.25900         5.72500        17.10600
C           8.68500         5.94500        20.39600
O           8.44400         4.57200        20.73600
H           7.95200         4.27600        19.91800
C          10.25000         9.85400        19.71900
O          10.50700        10.82300        20.74600
H           9.90000        11.58900        20.53500
C          10.09300         8.35900        19.94600
O           9.33400         8.09500        21.13500
C           9.32300         6.71800        21.53900
O           8.85100         6.66800        22.89300

