# freq=raman b3lyp/6-31+g(d,p) geom=connectivity

500 10000.com

0 1
O           8.42000         6.31100        22.91600
C           9.28200         6.37000        24.06200
C           8.98200         7.74400        24.63900
O           9.33100         8.75600        23.68400
H           9.02700         8.67200        22.73500
C           9.60200         8.00900        26.00100
O           9.01100         9.19200        26.55800
H           9.18400         9.98400        25.97300
C           9.18200         3.85900        24.42800
O           8.75600         2.75800        25.24400
H           8.80100         1.84900        24.83200
C           8.89800         5.23800        25.00100
O           9.57000         5.50500        26.24000
C           9.38700         6.78100        26.87100
O          10.37900         6.65100        27.89900
C           9.94400         6.51000        29.25900
C           9.81700         5.04300        29.63600
O           9.37200         4.13300        28.62000
H           9.54300         4.50100        27.70700
C           9.02600         4.74300        30.89900
O           9.25100         3.33300        31.05000
H           9.02100         2.86700        30.19600
C          10.41700         8.73000        30.13900
O          11.13200         9.72300        30.88800
H          10.70900        10.59400        30.63900
C          10.57000         7.24700        30.43200
O           9.92900         6.94400        31.67900
C           9.68500         5.56600        31.99400
O           8.90500         5.60100        33.19800

