# freq=raman b3lyp/6-31+g(2d,p) geom=connectivity

483 8597/8597.com

0 1
 O                  7.94900000    7.53900000   12.18600000
 C                  8.42500000    7.97700000   13.46700000
 C                  7.93900000    9.35800000   13.87500000
 O                  8.14800000   10.27800000   12.79400000
 H                  7.95300000    9.85700000   11.90800000
 C                  8.54300000    9.70000000   15.22700000
 O                  7.89400000   10.86600000   15.75300000
 H                  8.24400000   11.09800000   16.66100000
 C                  8.66200000    5.58300000   14.28100000
 O                  7.98100000    4.85000000   13.25200000
 H                  8.04600000    3.86600000   13.41400000
 C                  8.16600000    6.98700000   14.59100000
 O                  8.75100000    7.30800000   15.86100000
 C                  8.24500000    8.59900000   16.23200000
 O                  9.02000000    8.65400000   17.43900000
 C                  8.31600000    8.31100000   18.64100000
 C                  8.93800000    7.04300000   19.20300000
 O                  8.66500000    6.07200000   18.18300000
 H                  8.92800000    6.50100000   17.31900000
 C                  8.36400000    6.55500000   20.52300000
 O                  8.96900000    5.34400000   21.00000000
 H                  8.67500000    5.15900000   21.93800000
 C                  7.84400000   10.67600000   19.37000000
 O                  8.41600000   11.44800000   18.30300000
 H                  8.30900000   12.43100000   18.45600000
 C                  8.55600000    9.37500000   19.70100000
 O                  8.06900000    8.92200000   20.97200000
 C                  8.59600000    7.69500000   21.50000000
 O                  7.86700000    7.43000000   22.70700000
 H                  8.48396472    7.27227657   23.42538559
 H                  9.63986720    7.79847663   21.71103044
 H                  7.31142773    6.39900682   20.41049337
 H                  9.99557500    7.17448130   19.29864413
 H                  7.27067940    8.17892492   18.45455692
 H                  9.60691320    9.56164877   19.77612440
 H                  7.83248805   11.28291018   20.25115124
 H                  6.83242963   10.44496023   19.10876063
 H                  8.69671391    7.34420208   11.61628281
 H                  8.60358666    5.00996662   15.18273201
 H                  9.69254823    5.65529579   14.00235386
 H                  7.10640206    6.93220555   14.72938271
 H                  9.48850188    8.05149728   13.37581942
 H                  6.88106394    9.28774150   14.01899668
 H                  9.59758280    9.85991737   15.14225596
 H                  7.19917628    8.54905246   16.45258557

 1 2 1.0 38 1.0
 2 3 1.0 12 1.0 42 1.0
 3 4 1.0 6 1.0 43 1.0
 4 5 1.0
 5
 6 7 1.0 14 1.0 44 1.0
 7 8 1.0
 8
 9 10 1.0 12 1.0 39 1.0 40 1.0
 10 11 1.0
 11
 12 13 1.0 41 1.0
 13 14 1.0
 14 15 1.0 45 1.0
 15 16 1.0
 16 17 1.0 26 1.0 34 1.0
 17 18 1.0 20 1.0 33 1.0
 18 19 1.0
 19
 20 21 1.0 28 1.0 32 1.0
 21 22 1.0
 22
 23 24 1.0 26 1.0 36 1.0 37 1.0
 24 25 1.0
 25
 26 27 1.0 35 1.0
 27 28 1.0
 28 29 1.0 31 1.0
 29 30 1.0
 30
 31
 32
 33
 34
 35
 36
 37
 38
 39
 40
 41
 42
 43
 44
 45

