# freq=raman b3lyp/6-31+g(2d,p) geom=connectivity

483 8597/8597.com

0 1
O           7.94900         7.53900        12.18600
C           8.42500         7.97700        13.46700
C           7.93900         9.35800        13.87500
O           8.14800        10.27800        12.79400
H           7.95300         9.85700        11.90800
C           8.54300         9.70000        15.22700
O           7.89400        10.86600        15.75300
H           8.24400        11.09800        16.66100
C           8.66200         5.58300        14.28100
O           7.98100         4.85000        13.25200
H           8.04600         3.86600        13.41400
C           8.16600         6.98700        14.59100
O           8.75100         7.30800        15.86100
C           8.24500         8.59900        16.23200
O           9.02000         8.65400        17.43900
C           8.31600         8.31100        18.64100
C           8.93800         7.04300        19.20300
O           8.66500         6.07200        18.18300
H           8.92800         6.50100        17.31900
C           8.36400         6.55500        20.52300
O           8.96900         5.34400        21.00000
H           8.67500         5.15900        21.93800
C           7.84400        10.67600        19.37000
O           8.41600        11.44800        18.30300
H           8.30900        12.43100        18.45600
C           8.55600         9.37500        19.70100
O           8.06900         8.92200        20.97200
C           8.59600         7.69500        21.50000
O           7.86700         7.43000        22.70700

