# freq=raman b3lyp/6-31+g(2d,p) geom=connectivity

473 8000/8000.com

0 1
 O                  7.33200000    7.31500000   12.32600000
 C                  8.04600000    7.78600000   13.47900000
 C                  7.69600000    9.21900000   13.84500000
 O                  8.12900000   10.25700000   12.95300000
 H                  7.97700000   10.00600000   11.99700000
 C                  7.97000000    9.59300000   15.29300000
 O                  7.05600000   10.66600000   15.56100000
 H                  7.26500000   11.02500000   16.47100000
 C                  8.32900000    5.46700000   14.41800000
 O                  7.92000000    4.72200000   13.26200000
 H                  8.08500000    3.77300000   13.53300000
 C                  7.68600000    6.83100000   14.60600000
 O                  8.23300000    7.18700000   15.88400000
 C                  7.70900000    8.46400000   16.27600000
 O                  8.41300000    8.77100000   17.48800000
 C                  7.88100000    8.27900000   18.72700000
 C                  8.39900000    6.93200000   19.20400000
 O                  8.04900000    5.95000000   18.21700000
 H                  8.39600000    6.17900000   17.30700000
 C                  7.86200000    6.45000000   20.54200000
 O                  8.56700000    5.28300000   20.99000000
 H                  8.26800000    4.94700000   21.88300000
 C                  7.58800000   10.72800000   19.54300000
 O                  7.91800000   11.49500000   18.37600000
 H                  7.69400000   12.45000000   18.57400000
 C                  8.14200000    9.33400000   19.79000000
 O                  7.58500000    8.93300000   21.05000000
 C                  8.09000000    7.65000000   21.44600000
 O                  7.55600000    7.44800000   22.76300000
 H                  8.27709020    7.35192092   23.38941659
 H                  9.14965914    7.75494327   21.55092582
 H                  6.81536845    6.24156309   20.46443419
 H                  9.46584428    6.98404389   19.26751939
 H                  6.82103524    8.19175358   18.60968519
 H                  9.20177397    9.41965263   19.91017804
 H                  7.86802383   11.32188811   20.38785713
 H                  6.52174568   10.63998818   19.55898906
 H                  7.95807206    7.03978770   11.65228495
 H                  8.11341831    4.87753605   15.28457763
 H                  6.62327214    6.72876101   14.67711031
 H                  9.09702781    7.72156474   13.28902991
 H                  6.62905565    9.24480397   13.76842388
 H                  8.97720791    9.93942341   15.39509330
 H                  6.66027749    8.38462411   16.47292782
 H                  9.38863102    5.60553215   14.36423240

 1 2 1.0 38 1.0
 2 3 1.0 12 1.0 41 1.0
 3 4 1.0 6 1.0 42 1.0
 4 5 1.0
 5
 6 7 1.0 14 1.0 43 1.0
 7 8 1.0
 8
 9 10 1.0 12 1.0 39 1.0 45 1.0
 10 11 1.0
 11
 12 13 1.0 40 1.0
 13 14 1.0
 14 15 1.0 44 1.0
 15 16 1.0
 16 17 1.0 26 1.0 34 1.0
 17 18 1.0 20 1.0 33 1.0
 18 19 1.0
 19
 20 21 1.0 28 1.0 32 1.0
 21 22 1.0
 22
 23 24 1.0 26 1.0 36 1.0 37 1.0
 24 25 1.0
 25
 26 27 1.0 35 1.0
 27 28 1.0
 28 29 1.0 31 1.0
 29 30 1.0
 30
 31
 32
 33
 34
 35
 36
 37
 38
 39
 40
 41
 42
 43
 44
 45

