# freq=raman b3lyp/6-31+g(2d,p) geom=connectivity

500 5899/5899.com

0 1
 O                  8.48200000    7.03100000   11.88500000
 C                  9.20200000    7.24400000   13.10700000
 C                  9.48100000    8.68500000   13.50100000
 O                 10.32000000    9.43900000   12.61400000
 H                 10.03600000    9.65900000   11.68100000
 C                 10.05000000    8.58200000   14.90700000
 O                 10.36000000    9.92500000   15.30800000
 H                 10.87000000   10.29500000   14.53200000
 C                  8.65500000    4.95700000   13.71400000
 O                  8.19300000    4.07800000   14.75000000
 H                  8.49900000    3.18000000   14.43300000
 C                  8.37500000    6.40800000   14.07000000
 O                  8.94200000    6.45300000   15.38700000
 C                  9.30700000    7.73300000   15.92500000
 O                 10.25500000    7.40400000   16.95100000
 C                  9.64000000    7.50900000   18.24400000
 C                  9.39900000    6.06100000   18.64100000
 O                  8.60900000    5.20700000   17.80100000
 H                  8.71100000    5.34500000   16.81600000
 C                  9.02900000    6.04000000   20.11500000
 O                  8.83900000    4.64800000   20.41000000
 H                  8.46700000    4.40800000   19.51300000
 C                 11.04300000    9.61900000   18.70800000
 O                  9.96200000   10.47000000   18.29800000
 H                 10.12200000   10.71800000   17.34300000
 C                 10.57700000    8.25200000   19.18100000
 O                 10.08400000    8.23600000   20.52800000
 C                  9.87700000    6.90800000   21.03000000
 O                  9.10300000    7.15600000   22.21300000
 H                  9.69265222    7.31143528   22.95445137
 H                 10.80570249    6.43326235   21.26882182
 H                  8.05104648    6.47107276   20.16679944
 H                 10.37219799    5.61765144   18.60596113
 H                  8.70810262    8.02899887   18.16609980
 H                 11.46599285    7.65707135   19.20652676
 H                 11.70974741    9.48786927   17.88146952
 H                 11.57288359   10.09648766   19.50557690
 H                  9.70867265    4.82387153   13.58380497
 H                  8.15437466    4.71637425   12.79946541
 H                  7.33215351    6.64690328   14.05278322
 H                  9.10414291    6.90545523   11.16473844
 H                 10.15159846    6.76183055   13.00367826
 H                  8.54121844    9.19255098   13.56505169
 H                 10.99691138    8.09765100   14.79010312
 H                  8.45927487    8.24813019   16.32612714

 1 2 1.0 41 1.0
 2 3 1.0 12 1.0 42 1.0
 3 4 1.0 6 1.0 43 1.0
 4 5 1.0
 5
 6 7 1.0 14 1.0 44 1.0
 7 8 1.0
 8
 9 10 1.0 12 1.0 38 1.0 39 1.0
 10 11 1.0
 11
 12 13 1.0 40 1.0
 13 14 1.0
 14 15 1.0 45 1.0
 15 16 1.0
 16 17 1.0 26 1.0 34 1.0
 17 18 1.0 20 1.0 33 1.0
 18 19 1.0
 19
 20 21 1.0 28 1.0 32 1.0
 21 22 1.0
 22
 23 24 1.0 26 1.0 36 1.0 37 1.0
 24 25 1.0
 25
 26 27 1.0 35 1.0
 27 28 1.0
 28 29 1.0 31 1.0
 29 30 1.0
 30
 31
 32
 33
 34
 35
 36
 37
 38
 39
 40
 41
 42
 43
 44
 45

