# freq=raman b3lyp/6-31+g(2d,p) geom=connectivity

500 5899/5899.com

0 1
O           8.48200         7.03100        11.88500
C           9.20200         7.24400        13.10700
C           9.48100         8.68500        13.50100
O          10.32000         9.43900        12.61400
H          10.03600         9.65900        11.68100
C          10.05000         8.58200        14.90700
O          10.36000         9.92500        15.30800
H          10.87000        10.29500        14.53200
C           8.65500         4.95700        13.71400
O           8.19300         4.07800        14.75000
H           8.49900         3.18000        14.43300
C           8.37500         6.40800        14.07000
O           8.94200         6.45300        15.38700
C           9.30700         7.73300        15.92500
O          10.25500         7.40400        16.95100
C           9.64000         7.50900        18.24400
C           9.39900         6.06100        18.64100
O           8.60900         5.20700        17.80100
H           8.71100         5.34500        16.81600
C           9.02900         6.04000        20.11500
O           8.83900         4.64800        20.41000
H           8.46700         4.40800        19.51300
C          11.04300         9.61900        18.70800
O           9.96200        10.47000        18.29800
H          10.12200        10.71800        17.34300
C          10.57700         8.25200        19.18100
O          10.08400         8.23600        20.52800
C           9.87700         6.90800        21.03000
O           9.10300         7.15600        22.21300

