# freq=raman b3lyp/6-31+g(d,p) geom=connectivity

350 6000.com

0 1
O           7.48700         7.57000        22.82300
C           8.08100         8.03500        24.04300
C           7.59300         9.40200        24.49500
O           7.89000        10.37700        23.48500
H           7.69700         9.89900        22.62800
C           8.34400         9.76400        25.76600
O           7.75600        10.93300        26.35400
H           7.98000        11.13100        27.30800
C           8.50700         5.53900        24.81900
O           8.11900         4.76200        23.67700
H           8.48800         3.83500        23.74400
C           7.95400         6.93000        25.07900
O           8.60500         7.42300        26.25900
C           8.15800         8.67100        26.80700
O           8.87300         8.78900        28.04600
C           8.21700         8.45600        29.27800
C           8.82400         7.16900        29.81300
O           8.73100         6.15200        28.80500
H           9.00700         6.65200        27.98400
C           8.11700         6.73500        31.08700
O           8.51500         5.42300        31.51100
H           8.05400         5.35200        32.39500
C           7.58500        10.81800        29.91400
O           8.21800        11.57300        28.87100
H           8.04100        12.55300        28.96900
C           8.32900         9.55600        30.32000
O           7.89000         9.19600        31.63800
C           8.35400         7.89800        32.03600
O           7.58000         7.58000        33.20200

