# freq=raman b3lyp/6-31+g(d,p) geom=connectivity

350 6000.com

0 1
 O                  7.48700000    7.57000000   22.82300000
 C                  8.08100000    8.03500000   24.04300000
 C                  7.59300000    9.40200000   24.49500000
 O                  7.89000000   10.37700000   23.48500000
 H                  7.69700000    9.89900000   22.62800000
 C                  8.34400000    9.76400000   25.76600000
 O                  7.75600000   10.93300000   26.35400000
 H                  7.98000000   11.13100000   27.30800000
 C                  8.50700000    5.53900000   24.81900000
 O                  8.11900000    4.76200000   23.67700000
 H                  8.48800000    3.83500000   23.74400000
 C                  7.95400000    6.93000000   25.07900000
 O                  8.60500000    7.42300000   26.25900000
 C                  8.15800000    8.67100000   26.80700000
 O                  8.87300000    8.78900000   28.04600000
 C                  8.21700000    8.45600000   29.27800000
 C                  8.82400000    7.16900000   29.81300000
 O                  8.73100000    6.15200000   28.80500000
 H                  9.00700000    6.65200000   27.98400000
 C                  8.11700000    6.73500000   31.08700000
 O                  8.51500000    5.42300000   31.51100000
 H                  8.05400000    5.35200000   32.39500000
 C                  7.58500000   10.81800000   29.91400000
 O                  8.21800000   11.57300000   28.87100000
 H                  8.04100000   12.55300000   28.96900000
 C                  8.32900000    9.55600000   30.32000000
 O                  7.89000000    9.19600000   31.63800000
 C                  8.35400000    7.89800000   32.03600000
 O                  7.58000000    7.58000000   33.20200000
 H                  8.16961537    7.38066295   33.93290250
 H                  9.39115034    7.94832417   32.29423757
 H                  7.06798724    6.69794422   30.87939676
 H                  9.85664436    7.34120019   30.03411697
 H                  7.18040677    8.28477539   29.07537570
 H                  9.36556396    9.81104620   30.39339347
 H                  7.48898631   11.44571357   30.77519513
 H                  6.60525724   10.54163240   29.58441682
 H                  8.17832466    7.33277052   22.20059146
 H                  8.27648057    4.95095861   25.68269446
 H                  9.57183826    5.63521853   24.77703007
 H                  6.91331398    6.82169047   25.30292333
 H                  9.12712280    8.14369640   23.84624589
 H                  6.54010634    9.37439503   24.68355478
 H                  9.38255795    9.92249548   25.56307992
 H                  7.11392335    8.59053420   27.02683902

 1 2 1.0 38 1.0
 2 3 1.0 12 1.0 42 1.0
 3 4 1.0 6 1.0 43 1.0
 4 5 1.0
 5
 6 7 1.0 14 1.0 44 1.0
 7 8 1.0
 8
 9 10 1.0 12 1.0 39 1.0 40 1.0
 10 11 1.0
 11
 12 13 1.0 41 1.0
 13 14 1.0
 14 15 1.0 45 1.0
 15 16 1.0
 16 17 1.0 26 1.0 34 1.0
 17 18 1.0 20 1.0 33 1.0
 18 19 1.0
 19
 20 21 1.0 28 1.0 32 1.0
 21 22 1.0
 22
 23 24 1.0 26 1.0 36 1.0 37 1.0
 24 25 1.0
 25
 26 27 1.0 35 1.0
 27 28 1.0
 28 29 1.0 31 1.0
 29 30 1.0
 30
 31
 32
 33
 34
 35
 36
 37
 38
 39
 40
 41
 42
 43
 44
 45

