# freq=raman b3lyp/6-31+g(2d,p) geom=connectivity

300 8649/8649.com

0 1
O           7.71900         7.56000        12.59300
C           8.32000         8.00400        13.81800
C           7.69200         9.31500        14.26100
O           7.98100        10.30500        13.26300
H           7.65100         9.84300        12.43900
C           8.12200         9.70600        15.66500
O           7.65200        10.97100        16.15500
H           8.04600        11.17600        17.05000
C           8.19700         5.49800        14.61900
O           7.77200         4.74200        13.47600
H           8.01900         3.79000        13.65900
C           7.88000         6.96800        14.83900
O           8.26200         7.32400        16.17600
C           7.80400         8.59700        16.65500
O           8.64700         8.73900        17.80800
C           8.10800         8.46500        19.10900
C           8.59500         7.07900        19.50100
O           8.12200         6.10700        18.55800
H           8.19500         6.59400        17.68700
C           8.23600         6.68400        20.92400
O           8.78600         5.44200        21.38600
H           8.40500         5.17900        22.27200
C           8.10400        10.88900        19.81900
O           8.34100        11.59300        18.59100
H           8.32400        12.58500        18.71500
C           8.57900         9.48100        20.13700
O           8.06400         9.12600        21.42800
C           8.47200         7.83100        21.89300
O           7.75300         7.65500        23.12200

