# freq=raman b3lyp/6-31+g(2d,p) geom=connectivity

300 8649/8649.com

0 1
 O                  7.71900000    7.56000000   12.59300000
 C                  8.32000000    8.00400000   13.81800000
 C                  7.69200000    9.31500000   14.26100000
 O                  7.98100000   10.30500000   13.26300000
 H                  7.65100000    9.84300000   12.43900000
 C                  8.12200000    9.70600000   15.66500000
 O                  7.65200000   10.97100000   16.15500000
 H                  8.04600000   11.17600000   17.05000000
 C                  8.19700000    5.49800000   14.61900000
 O                  7.77200000    4.74200000   13.47600000
 H                  8.01900000    3.79000000   13.65900000
 C                  7.88000000    6.96800000   14.83900000
 O                  8.26200000    7.32400000   16.17600000
 C                  7.80400000    8.59700000   16.65500000
 O                  8.64700000    8.73900000   17.80800000
 C                  8.10800000    8.46500000   19.10900000
 C                  8.59500000    7.07900000   19.50100000
 O                  8.12200000    6.10700000   18.55800000
 H                  8.19500000    6.59400000   17.68700000
 C                  8.23600000    6.68400000   20.92400000
 O                  8.78600000    5.44200000   21.38600000
 H                  8.40500000    5.17900000   22.27200000
 C                  8.10400000   10.88900000   19.81900000
 O                  8.34100000   11.59300000   18.59100000
 H                  8.32400000   12.58500000   18.71500000
 C                  8.57900000    9.48100000   20.13700000
 O                  8.06400000    9.12600000   21.42800000
 C                  8.47200000    7.83100000   21.89300000
 O                  7.75300000    7.65500000   23.12200000
 H                  8.37586823    7.55144411   23.84512609
 H                  8.40685180    7.33180480   11.96340739
 H                  7.81908454    4.98033507   15.47579807
 H                  9.26330531    5.41518872   14.65117586
 H                  6.81127965    7.01960585   14.83041845
 H                  9.38555328    8.06897702   13.74537635
 H                  6.63129805    9.17529017   14.27810369
 H                  9.18892454    9.78118836   15.63468918
 H                  6.76743314    8.57540233   16.91950461
 H                  8.49883971   11.51237103   20.59386139
 H                  7.04179341   10.87475644   19.94711819
 H                  9.64837960    9.47239351   20.17240050
 H                  7.03900292    8.47003017   19.06295725
 H                  9.66301135    7.08962507   19.43666601
 H                  7.17657118    6.53424110   20.91489747
 H                  9.51757625    7.86891007   22.11712749

 1 2 1.0 31 1.0
 2 3 1.0 12 1.0 35 1.0
 3 4 1.0 6 1.0 36 1.0
 4 5 1.0
 5
 6 7 1.0 14 1.0 37 1.0
 7 8 1.0
 8
 9 10 1.0 12 1.0 32 1.0 33 1.0
 10 11 1.0
 11
 12 13 1.0 34 1.0
 13 14 1.0
 14 15 1.0 38 1.0
 15 16 1.0
 16 17 1.0 26 1.0 42 1.0
 17 18 1.0 20 1.0 43 1.0
 18 19 1.0
 19
 20 21 1.0 28 1.0 44 1.0
 21 22 1.0
 22
 23 24 1.0 26 1.0 39 1.0 40 1.0
 24 25 1.0
 25
 26 27 1.0 41 1.0
 27 28 1.0
 28 29 1.0 45 1.0
 29 30 1.0
 30
 31
 32
 33
 34
 35
 36
 37
 38
 39
 40
 41
 42
 43
 44
 45

