# freq=raman b3lyp/6-31+g(2d,p) geom=connectivity

473 8456/8456.com

0 1
O           7.68600         7.43200        12.30400
C           8.27100         7.82500        13.55400
C           7.61600         9.09700        14.06600
O           7.85600        10.16700        13.14000
H           7.57800         9.89100        12.22000
C           8.20600         9.61900        15.36600
O           7.32500        10.56500        15.99000
H           7.78500        11.12500        16.67900
C           8.79400         5.46500        14.37000
O           8.33800         4.87100        13.14600
H           8.31000         3.87200        13.18600
C           8.16300         6.81200        14.68100
O           8.80300         7.22500        15.89700
C           8.24600         8.46600        16.35600
O           9.04300         8.76100        17.51200
C           8.44800         8.32500        18.74200
C           9.01200         7.00200        19.23300
O           8.86800         5.98400        18.23200
H           9.01200         6.51500        17.39700
C           8.49000         6.54100        20.58400
O           9.14100         5.35000        21.05100
H           8.70300         4.94100        21.85100
C           8.55700        10.78900        19.64300
O           8.77000        11.45700        18.39100
H           8.88300        12.44000        18.53600
C           8.92100         9.32100        19.78900
O           8.46800         8.99000        21.11000
C           8.78600         7.66600        21.56300
O           7.99100         7.49400        22.74500

