# freq=raman b3lyp/6-31+g(2d,p) geom=connectivity
400 9000.com
400 9000.com
C          10.33300         7.75600         2.58700
0 1
O          11.20500        10.06200        23.17000
H          10.90300         9.79600        22.25400
C          10.95300         9.48600        25.45000
O          10.43000        10.71700        25.96800
H          10.81700        10.92700        26.86600
C          10.28000         5.41400        24.46200
O           9.59800         4.87400        23.32000
H           9.60100         3.89400        23.52100
C           9.99900         6.87600        24.76700
O          10.73800         7.13700        25.96800
C          10.44900         8.45700        26.44900
O          11.24900         8.47600        27.64000
C          10.47800         8.29300        28.83700
C          10.41000         6.83200        29.25400
O           9.85700         6.04100        28.19200
H          10.10800         6.36600        27.28000
C           9.81500         6.50700        30.61400
O           9.84800         5.13400        31.03200
H           9.66600         4.96600        32.00100
C          11.25900        10.56800        29.77600
O          11.50200        11.31100        28.57300
H          11.48400        12.29200        28.76500
C          11.18300         9.06000        29.94400
O          10.55000         8.78100        31.20100
C          10.54800         7.40300        31.59900
O           9.85900         7.28200        32.85200
C          10.50800         7.68300        34.06800
C          10.39600         9.15400        34.43200
O          11.27200         9.85700        33.53900

