# freq=raman b3lyp/6-31+g(2d,p) geom=connectivity

483 9330/9330.com

0 1
O           7.72500         7.37700        12.35300
C           8.17500         7.84900        13.63100
C           7.56400         9.14200        14.14600
O           7.75000        10.17100        13.16400
H           7.58000         9.77300        12.26200
C           8.24300         9.65600        15.40500
O           7.59900        10.72100        16.12000
H           8.12900        11.01800        16.91400
C           8.58000         5.34700        14.35800
O           8.16100         4.62100        13.19300
H           8.38400         3.64800        13.25000
C           8.11800         6.75800        14.68800
O           8.81300         7.20600        15.86100
C           8.26300         8.44700        16.32600
O           8.86700         8.80300        17.57800
C           8.16400         8.37600        18.75400
C           8.59700         7.02600        19.30300
O           8.48200         5.92400        18.39100
H           8.59600         6.13500        17.42000
C           8.09600         6.68200        20.69600
O           8.63400         5.43100        21.15000
H           8.16700         5.23800        22.01300
C           8.11500        10.84500        19.46700
O           8.70400        11.53600        18.35600
H           8.65100        12.52100        18.52100
C           8.43300         9.40600        19.83900
O           7.81800         9.08900        21.09600
C           8.30400         7.85400        21.64200
O           7.56200         7.53200        22.82800

