# freq=raman b3lyp/6-31+g(2d,p) geom=connectivity

300 5043/5043.com

0 1
O           7.66800         7.54400        12.27800
C           8.27300         7.95400        13.51300
C           7.68500         9.28000        13.96800
O           7.90600        10.34700        13.03400
H           7.87600         9.96700        12.11000
C           8.21300         9.66900        15.33900
O           7.56900        10.83100        15.87900
H           8.05400        11.09600        16.71200
C           8.69700         5.52500        14.16100
O           7.86800         4.77600        13.26000
H           7.96000         3.80800        13.49200
C           8.19500         6.89200        14.59700
O           8.97700         7.35200        15.70800
C           8.23900         8.45500        16.25500
O           9.02900         8.74400        17.41700
C           8.49300         8.43500        18.71200
C           8.90200         7.00600        19.03200
O           8.55100         5.96100        18.11400
H           8.58300         6.42000        17.22600
C           8.39200         6.61400        20.40900
O           8.78100         5.33200        20.92300
H           8.39500         5.16900        21.83100
C           8.55500        10.85700        19.65000
O           8.65300        11.44500        18.34400
H           8.47200        12.42700        18.39500
C           8.97200         9.40100        19.78300
O           8.48500         9.04200        21.08400
C           8.76000         7.67700        21.43200
O           7.95400         7.49600        22.60500

