# freq=raman b3lyp/6-31+g(2d,p) geom=connectivity

300 5043/5043.com

0 1
 O                  7.66800000    7.54400000   12.27800000
 C                  8.27300000    7.95400000   13.51300000
 C                  7.68500000    9.28000000   13.96800000
 O                  7.90600000   10.34700000   13.03400000
 H                  7.87600000    9.96700000   12.11000000
 C                  8.21300000    9.66900000   15.33900000
 O                  7.56900000   10.83100000   15.87900000
 H                  8.05400000   11.09600000   16.71200000
 C                  8.69700000    5.52500000   14.16100000
 O                  7.86800000    4.77600000   13.26000000
 H                  7.96000000    3.80800000   13.49200000
 C                  8.19500000    6.89200000   14.59700000
 O                  8.97700000    7.35200000   15.70800000
 C                  8.23900000    8.45500000   16.25500000
 O                  9.02900000    8.74400000   17.41700000
 C                  8.49300000    8.43500000   18.71200000
 C                  8.90200000    7.00600000   19.03200000
 O                  8.55100000    5.96100000   18.11400000
 H                  8.58300000    6.42000000   17.22600000
 C                  8.39200000    6.61400000   20.40900000
 O                  8.78100000    5.33200000   20.92300000
 H                  8.39500000    5.16900000   21.83100000
 C                  8.55500000   10.85700000   19.65000000
 O                  8.65300000   11.44500000   18.34400000
 H                  8.47200000   12.42700000   18.39500000
 C                  8.97200000    9.40100000   19.78300000
 O                  8.48500000    9.04200000   21.08400000
 C                  8.76000000    7.67700000   21.43200000
 O                  7.95400000    7.49600000   22.60500000
 H                  8.35382071    7.33234805   11.64046302
 H                  8.84158347    4.93357378   15.04089241
 H                  9.64978922    5.66020290   13.69322561
 H                  7.17632405    6.79772706   14.91054733
 H                  9.31074035    8.12206335   13.31362681
 H                  6.62709237    9.14675936   14.05732181
 H                  9.23600384    9.94614978   15.19219691
 H                  7.24901608    8.15623457   16.52990190
 H                  9.16066812   11.43453322   20.31672446
 H                 10.04110481    9.36339652   19.80538050
 H                  7.42527542    8.48281008   18.66122191
 H                  9.97040254    7.00721388   19.09043409
 H                  8.52299069    7.37808560   23.36916346
 H                  9.79323330    7.57764394   21.69172548
 H                  7.32396896    6.60423162   20.34485734
 H                  7.53766115   10.93816333   19.97145633

 1 2 1.0 30 1.0
 2 3 1.0 12 1.0 34 1.0
 3 4 1.0 6 1.0 35 1.0
 4 5 1.0
 5
 6 7 1.0 14 1.0 36 1.0
 7 8 1.0
 8
 9 10 1.0 12 1.0 31 1.0 32 1.0
 10 11 1.0
 11
 12 13 1.0 33 1.0
 13 14 1.0
 14 15 1.0 37 1.0
 15 16 1.0
 16 17 1.0 26 1.0 40 1.0
 17 18 1.0 20 1.0 41 1.0
 18 19 1.0
 19
 20 21 1.0 28 1.0 44 1.0
 21 22 1.0
 22
 23 24 1.0 26 1.0 38 1.0 45 1.0
 24 25 1.0
 25
 26 27 1.0 39 1.0
 27 28 1.0
 28 29 1.0 43 1.0
 29 42 1.0
 30
 31
 32
 33
 34
 35
 36
 37
 38
 39
 40
 41
 42
 43
 44
 45

