# freq=raman b3lyp/6-31+g(2d,p) geom=connectivity

550 9775/9775.com

0 1
O           9.78100         7.64700        11.09400
C          10.75800         7.75100        12.14000
C          10.90000         9.12700        12.77000
O          11.69200         9.84900        11.81700
H          11.15600         9.74700        10.97900
C          11.54500         9.25900        14.14000
O          11.10700        10.48200        14.74900
H          11.39400        11.27600        14.21300
C          10.19000         5.41200        12.80600
O           9.62200         4.51700        13.77400
H           9.54200         3.58000        13.43400
C          10.22500         6.86400        13.25300
O          10.96400         6.93100        14.48100
C          10.92600         8.23500        15.07800
O          11.61900         7.86200        16.27800
C          10.78100         7.82500        17.44200
C          10.18500         6.45300        17.71000
O           9.48400         5.78500        16.65100
H          10.02800         5.60500        15.83100
C           9.32900         6.59800        18.95800
O           8.36700         5.58300        19.27900
H           7.71800         5.39900        18.54000
C          11.38600         9.84800        18.64300
O          12.02900        10.76700        17.74800
H          11.81100        10.35800        16.86200
C          11.57900         8.34000        18.62900
O          10.98500         8.00400        19.89100
C          10.30000         6.76300        20.11600
O           9.75200         6.72500        21.44100

