# freq=raman b3lyp/6-31+g(2d,p) geom=connectivity

550 9775/9775.com

0 1
 O                  9.78100000    7.64700000   11.09400000
 C                 10.75800000    7.75100000   12.14000000
 C                 10.90000000    9.12700000   12.77000000
 O                 11.69200000    9.84900000   11.81700000
 H                 11.15600000    9.74700000   10.97900000
 C                 11.54500000    9.25900000   14.14000000
 O                 11.10700000   10.48200000   14.74900000
 H                 11.39400000   11.27600000   14.21300000
 C                 10.19000000    5.41200000   12.80600000
 O                  9.62200000    4.51700000   13.77400000
 H                  9.54200000    3.58000000   13.43400000
 C                 10.22500000    6.86400000   13.25300000
 O                 10.96400000    6.93100000   14.48100000
 C                 10.92600000    8.23500000   15.07800000
 O                 11.61900000    7.86200000   16.27800000
 C                 10.78100000    7.82500000   17.44200000
 C                 10.18500000    6.45300000   17.71000000
 O                  9.48400000    5.78500000   16.65100000
 H                 10.02800000    5.60500000   15.83100000
 C                  9.32900000    6.59800000   18.95800000
 O                  8.36700000    5.58300000   19.27900000
 H                  7.71800000    5.39900000   18.54000000
 C                 11.38600000    9.84800000   18.64300000
 O                 12.02900000   10.76700000   17.74800000
 H                 11.81100000   10.35800000   16.86200000
 C                 11.57900000    8.34000000   18.62900000
 O                 10.98500000    8.00400000   19.89100000
 C                 10.30000000    6.76300000   20.11600000
 O                  9.75200000    6.72500000   21.44100000
 H                 10.46617920    6.70660925   22.08225646
 H                 11.02172158    5.97622123   20.04530963
 H                  8.79008264    7.51734690   18.86172247
 H                 11.00336413    5.81586403   17.97313096
 H                  9.96936773    8.50275014   17.27826913
 H                 12.61241652    8.06710035   18.57923976
 H                 11.64352448   10.16914842   19.63064611
 H                 10.33479603   10.01188021   18.52892333
 H                 10.22610280    7.56284501   10.24759500
 H                 11.19073610    5.09626603   12.59686053
 H                  9.61639529    5.34718386   11.90506909
 H                  9.22016114    7.16833942   13.45934046
 H                 11.70826502    7.39365629   11.80206233
 H                  9.93015849    9.57693038   12.81324471
 H                 12.61161685    9.18294507   14.10199808
 H                  9.91573490    8.50468714   15.30500940

 1 2 1.0 38 1.0
 2 3 1.0 12 1.0 42 1.0
 3 4 1.0 6 1.0 43 1.0
 4 5 1.0
 5
 6 7 1.0 14 1.0 44 1.0
 7 8 1.0
 8
 9 10 1.0 12 1.0 39 1.0 40 1.0
 10 11 1.0
 11
 12 13 1.0 41 1.0
 13 14 1.0
 14 15 1.0 45 1.0
 15 16 1.0
 16 17 1.0 26 1.0 34 1.0
 17 18 1.0 20 1.0 33 1.0
 18 19 1.0
 19
 20 21 1.0 28 1.0 32 1.0
 21 22 1.0
 22
 23 24 1.0 26 1.0 36 1.0 37 1.0
 24 25 1.0
 25
 26 27 1.0 35 1.0
 27 28 1.0
 28 29 1.0 31 1.0
 29 30 1.0
 30
 31
 32
 33
 34
 35
 36
 37
 38
 39
 40
 41
 42
 43
 44
 45

