# freq=raman b3lyp/6-31+g(2d,p) geom=connectivity
290 10000.com
290 10000.com
C           8.34200         7.77500         2.89800
0 1
O           8.23500        10.28100        23.65800
H           7.71900        10.17000        22.80800
C           8.42900         9.65300        25.95900
O           7.82500        10.82000        26.53600
H           8.21500        10.93000        27.45000
C           8.63300         5.49400        24.83900
O           8.25500         4.68400        23.71600
H           8.37100         3.73300        24.00300
C           8.03000         6.86900        25.07500
O           8.49800         7.25100        26.37700
C           8.01900         8.51000        26.87300
O           8.74600         8.78000        28.08000
C           8.07800         8.47500        29.31300
C           8.81400         7.20000        29.68700
O           8.69000         6.09600        28.77800
H           8.66000         6.50300        27.86500
C           8.53000         6.78400        31.12200
O           9.17600         5.57000        31.52900
H           8.82800         5.41500        32.45400
C           8.09800        10.89800        29.99700
O           8.54500        11.65800        28.86500
H           8.34700        12.61300        29.08400
C           8.59700         9.49700        30.31100
O           8.14100         9.17700        31.63400
C           8.73700         7.94900        32.07700
O           7.99700         7.60800        33.25800
C           8.50500         7.93500        34.55900
C           7.91500         9.24900        35.04500
O           8.18700        10.31500        34.12400

