# freq=raman b3lyp/6-31+g(2d,p) geom=connectivity

473 6737/6737.com

0 1
 O                  7.64700000    7.53000000   12.28900000
 C                  8.15100000    7.94100000   13.56800000
 C                  7.54800000    9.28000000   13.96000000
 O                  8.15700000   10.31000000   13.16600000
 H                  7.96500000   10.04500000   12.22100000
 C                  8.04700000    9.62700000   15.35300000
 O                  7.45600000   10.77600000   15.97600000
 H                  7.87900000   10.90900000   16.87200000
 C                  8.21800000    5.55200000   14.25300000
 O                  7.97300000    4.84400000   13.02900000
 H                  7.94500000    3.85200000   13.15500000
 C                  7.73300000    6.94100000   14.63400000
 O                  8.18800000    7.27400000   15.95400000
 C                  7.72100000    8.56000000   16.38600000
 O                  8.68800000    8.68500000   17.43800000
 C                  8.09600000    8.38400000   18.71000000
 C                  8.78100000    7.10500000   19.16400000
 O                  8.46500000    6.06200000   18.23000000
 H                  8.53500000    6.50100000   17.33400000
 C                  8.46000000    6.59400000   20.55900000
 O                  9.30500000    5.54200000   21.04900000
 H                  8.98800000    5.14000000   21.90800000
 C                  7.81100000   10.76900000   19.60700000
 O                  8.23900000   11.59700000   18.51600000
 H                  7.97500000   12.55000000   18.66800000
 C                  8.36100000    9.37100000   19.83600000
 O                  7.89600000    8.87200000   21.09800000
 C                  8.61800000    7.72300000   21.56400000
 O                  7.90000000    7.42000000   22.77000000
 H                  8.52380331    7.24219220   23.47771026
 H                  9.64560189    7.94982206   21.75761329
 H                  7.44486006    6.25621088   20.57601191
 H                  9.83675704    7.27298710   19.11864142
 H                  7.04434147    8.22005996   18.60028219
 H                  9.42371598    9.46792799   19.91435631
 H                  8.00019505   11.32234921   20.50305239
 H                  6.74957405   10.66870510   19.51635843
 H                  8.38202043    7.34107438   11.70107817
 H                  9.28291799    5.58750847   14.35092250
 H                  7.86402925    4.90604632   15.02911118
 H                  6.66346555    6.91816466   14.65578573
 H                  9.21785990    8.01577723   13.53455881
 H                  6.48008816    9.28865384   13.89374740
 H                  9.10794778    9.76078344   15.31569329
 H                  6.70764308    8.56353806   16.72950435

 1 2 1.0 38 1.0
 2 3 1.0 12 1.0 42 1.0
 3 4 1.0 6 1.0 43 1.0
 4 5 1.0
 5
 6 7 1.0 14 1.0 44 1.0
 7 8 1.0
 8
 9 10 1.0 12 1.0 39 1.0 40 1.0
 10 11 1.0
 11
 12 13 1.0 41 1.0
 13 14 1.0
 14 15 1.0 45 1.0
 15 16 1.0
 16 17 1.0 26 1.0 34 1.0
 17 18 1.0 20 1.0 33 1.0
 18 19 1.0
 19
 20 21 1.0 28 1.0 32 1.0
 21 22 1.0
 22
 23 24 1.0 26 1.0 36 1.0 37 1.0
 24 25 1.0
 25
 26 27 1.0 35 1.0
 27 28 1.0
 28 29 1.0 31 1.0
 29 30 1.0
 30
 31
 32
 33
 34
 35
 36
 37
 38
 39
 40
 41
 42
 43
 44
 45

