# freq=raman b3lyp/6-31+g(2d,p) geom=connectivity

483 8364/8364.com

0 1
O           7.65700         7.39000        12.16000
C           8.32500         7.70000        13.39200
C           7.80000         9.03600        13.89200
O           8.19200        10.04300        12.94800
H           7.86100         9.81000        12.03300
C           8.45100         9.52700        15.17500
O           7.99600        10.78400        15.69600
H           8.20000        10.97800        16.65500
C           8.27000         5.21800        14.43600
O           8.27100         4.56500        13.15900
H           8.22700         3.57700        13.30600
C           7.96200         6.70600        14.48300
O           8.66300         7.12600        15.66300
C           8.27300         8.40500        16.18500
O           9.16900         8.56900        17.29500
C           8.54500         8.25200        18.54800
C           9.20200         6.98000        19.06000
O           9.17600         5.86300        18.16100
H           9.08400         6.26800        17.25100
C           8.69400         6.62300        20.44700
O           9.35200         5.54400        21.12600
H           8.78700         5.15100        21.85200
C           8.17500        10.64400        19.40900
O           8.35300        11.49300        18.26600
H           8.20700        12.47900        18.34000
C           8.72600         9.25300        19.67700
O           8.04000         8.88300        20.88200
C           8.78900         7.78500        21.42300
O           7.88400         7.60600        22.52300

