# freq=raman b3lyp/6-31+g(2d,p) geom=connectivity

483 8364/8364.com

0 1
 O                  7.65700000    7.39000000   12.16000000
 C                  8.32500000    7.70000000   13.39200000
 C                  7.80000000    9.03600000   13.89200000
 O                  8.19200000   10.04300000   12.94800000
 H                  7.86100000    9.81000000   12.03300000
 C                  8.45100000    9.52700000   15.17500000
 O                  7.99600000   10.78400000   15.69600000
 H                  8.20000000   10.97800000   16.65500000
 C                  8.27000000    5.21800000   14.43600000
 O                  8.27100000    4.56500000   13.15900000
 H                  8.22700000    3.57700000   13.30600000
 C                  7.96200000    6.70600000   14.48300000
 O                  8.66300000    7.12600000   15.66300000
 C                  8.27300000    8.40500000   16.18500000
 O                  9.16900000    8.56900000   17.29500000
 C                  8.54500000    8.25200000   18.54800000
 C                  9.20200000    6.98000000   19.06000000
 O                  9.17600000    5.86300000   18.16100000
 H                  9.08400000    6.26800000   17.25100000
 C                  8.69400000    6.62300000   20.44700000
 O                  9.35200000    5.54400000   21.12600000
 H                  8.78700000    5.15100000   21.85200000
 C                  8.17500000   10.64400000   19.40900000
 O                  8.35300000   11.49300000   18.26600000
 H                  8.20700000   12.47900000   18.34000000
 C                  8.72600000    9.25300000   19.67700000
 O                  8.04000000    8.88300000   20.88200000
 C                  8.78900000    7.78500000   21.42300000
 O                  7.88400000    7.60600000   22.52300000
 H                  8.38489261    7.47446196   23.33133430
 H                  9.78456617    8.04530283   21.71624126
 H                  7.66063505    6.36225094   20.35178023
 H                 10.23677920    7.22210833   19.18456150
 H                  7.50120366    8.07596957   18.39178701
 H                  9.77100851    9.33615177   19.89134319
 H                  7.11448365   10.53534437   19.50064621
 H                  8.51487924   11.23174560   20.23600497
 H                  7.55231911    4.71953653   15.05355025
 H                  9.23560453    5.07363618   14.87379788
 H                  6.91354570    6.80882887   14.67026933
 H                  8.30917275    7.21809858   11.47683047
 H                  9.38495669    7.73853787   13.25090911
 H                  6.73519255    9.01072761   13.99420764
 H                  9.49927083    9.62428745   14.98378434
 H                  7.26028636    8.37152299   16.52878825

 1 2 1.0 41 1.0
 2 3 1.0 12 1.0 42 1.0
 3 4 1.0 6 1.0 43 1.0
 4 5 1.0
 5
 6 7 1.0 14 1.0 44 1.0
 7 8 1.0
 8
 9 10 1.0 12 1.0 38 1.0 39 1.0
 10 11 1.0
 11
 12 13 1.0 40 1.0
 13 14 1.0
 14 15 1.0 45 1.0
 15 16 1.0
 16 17 1.0 26 1.0 34 1.0
 17 18 1.0 20 1.0 33 1.0
 18 19 1.0
 19
 20 21 1.0 28 1.0 32 1.0
 21 22 1.0
 22
 23 24 1.0 26 1.0 36 1.0 37 1.0
 24 25 1.0
 25
 26 27 1.0 35 1.0
 27 28 1.0
 28 29 1.0 31 1.0
 29 30 1.0
 30
 31
 32
 33
 34
 35
 36
 37
 38
 39
 40
 41
 42
 43
 44
 45

