# freq=raman b3lyp/6-31+g(2d,p) geom=connectivity

423 9225/9225.com

0 1
 O                  7.74800000    7.36200000   12.31300000
 C                  8.41700000    7.81300000   13.50000000
 C                  7.80600000    9.12500000   13.96400000
 O                  7.75000000   10.21200000   13.02800000
 H                  7.48200000    9.81700000   12.14900000
 C                  8.32300000    9.56800000   15.32200000
 O                  7.59300000   10.75500000   15.66600000
 H                  7.99600000   10.99900000   16.54800000
 C                  8.40400000    5.38900000   14.35400000
 O                  7.78200000    4.77700000   13.21500000
 H                  7.82600000    3.77800000   13.23700000
 C                  8.04500000    6.84400000   14.61000000
 O                  8.76900000    7.26500000   15.77600000
 C                  8.09000000    8.42000000   16.29000000
 O                  8.88200000    8.64600000   17.46500000
 C                  8.30700000    8.30300000   18.73400000
 C                  8.78600000    6.96100000   19.26400000
 O                  8.31300000    5.96400000   18.34700000
 H                  8.67500000    6.30600000   17.48000000
 C                  8.29900000    6.55000000   20.64400000
 O                  9.06600000    5.49900000   21.25000000
 H                  8.61100000    5.22100000   22.09500000
 C                  7.91500000   10.70100000   19.46900000
 O                  8.41700000   11.40900000   18.32600000
 H                  8.08800000   12.35300000   18.34900000
 C                  8.56700000    9.36500000   19.79000000
 O                  8.06900000    8.96100000   21.07400000
 C                  8.54500000    7.71100000   21.59400000
 O                  7.67000000    7.43400000   22.69700000
 H                  8.19220840    7.23779408   23.47828204
 H                  8.39959835    7.11160195   11.65397010
 H                  8.13690773    4.82336520   15.22211232
 H                  9.46456831    5.32603171   14.22699662
 H                  6.99506494    6.91757159   14.80267484
 H                  9.47625565    7.88500900   13.36698811
 H                  6.77869577    8.88241050   14.13920373
 H                  9.36847247    9.78725747   15.26024659
 H                  7.05705848    8.24141135   16.50456447
 H                  8.02599974   11.33510485   20.32368713
 H                  6.86997021   10.52896863   19.31662566
 H                  9.62384741    9.51337984   19.86718148
 H                  7.24776091    8.23599005   18.59827152
 H                  9.85596395    6.95275746   19.26096486
 H                  7.25991284    6.29573663   20.62059028
 H                  9.56772620    7.76738645   21.90343770

 1 2 1.0 31 1.0
 2 3 1.0 12 1.0 35 1.0
 3 4 1.0 6 1.0 36 1.0
 4 5 1.0
 5
 6 7 1.0 14 1.0 37 1.0
 7 8 1.0
 8
 9 10 1.0 12 1.0 32 1.0 33 1.0
 10 11 1.0
 11
 12 13 1.0 34 1.0
 13 14 1.0
 14 15 1.0 38 1.0
 15 16 1.0
 16 17 1.0 26 1.0 42 1.0
 17 18 1.0 20 1.0 43 1.0
 18 19 1.0
 19
 20 21 1.0 28 1.0 44 1.0
 21 22 1.0
 22
 23 24 1.0 26 1.0 39 1.0 40 1.0
 24 25 1.0
 25
 26 27 1.0 41 1.0
 27 28 1.0
 28 29 1.0 45 1.0
 29 30 1.0
 30
 31
 32
 33
 34
 35
 36
 37
 38
 39
 40
 41
 42
 43
 44
 45

