# freq=raman b3lyp/6-31+g(2df,p) geom=connectivity

320 8000.com

0 1
 O                  7.35500000    7.61700000   12.27000000
 C                  8.00700000    7.94500000   13.50600000
 C                  7.62400000    9.32100000   14.02500000
 O                  7.84100000   10.34000000   13.03800000
 H                  7.52200000    9.91300000   12.19200000
 C                  8.22900000    9.62900000   15.38500000
 O                  7.65800000   10.79800000   15.99100000
 H                  7.90800000   10.89200000   16.95400000
 C                  8.20300000    5.55300000   14.30400000
 O                  7.91200000    4.82400000   13.10300000
 H                  8.21500000    3.93900000   13.45600000
 C                  7.73600000    6.96200000   14.63300000
 O                  8.44400000    7.28900000   15.83800000
 C                  7.97400000    8.52400000   16.39700000
 O                  8.88200000    8.62200000   17.50400000
 C                  8.23700000    8.31800000   18.74900000
 C                  8.70400000    6.98100000   19.30000000
 O                  8.66700000    5.97700000   18.27500000
 H                  8.95100000    6.38200000   17.40600000
 C                  8.12400000    6.58600000   20.64800000
 O                  8.77100000    5.40800000   21.15100000
 H                  8.56100000    5.37000000   22.12800000
 C                  7.93100000   10.72000000   19.55400000
 O                  8.32300000   11.40800000   18.35700000
 H                  8.41800000   12.35800000   18.65300000
 C                  8.52400000    9.34700000   19.82900000
 O                  7.97000000    9.01100000   21.10900000
 C                  8.52300000    7.75600000   21.53200000
 O                  7.78000000    7.41600000   22.71200000
 H                  8.38873161    7.21047148   23.42530488
 H                  8.01598484    7.43842780   11.59708767
 H                  7.85552445    4.93777458   15.10752873
 H                  9.27026208    5.57736814   14.37651095
 H                  6.68580734    6.94455789   14.83718410
 H                  9.06137357    7.94773283   13.32382179
 H                  6.56581767    9.28893068   14.18031169
 H                  9.28416060    9.76929237   15.27612316
 H                  6.95138710    8.46956349   16.70716046
 H                  8.17766151   11.34965739   20.38321027
 H                  6.86666936   10.61259577   19.53023840
 H                  9.58448704    9.44660920   19.93071157
 H                  7.18024038    8.27405661   18.58704916
 H                  9.74629624    7.12278009   19.49600242
 H                  7.06131960    6.46930475   20.60336156
 H                  9.57673003    7.80120291   21.71230453

 1 2 1.0 31 1.0
 2 3 1.0 12 1.0 35 1.0
 3 4 1.0 6 1.0 36 1.0
 4 5 1.0
 5
 6 7 1.0 14 1.0 37 1.0
 7 8 1.0
 8
 9 10 1.0 12 1.0 32 1.0 33 1.0
 10 11 1.0
 11
 12 13 1.0 34 1.0
 13 14 1.0
 14 15 1.0 38 1.0
 15 16 1.0
 16 17 1.0 26 1.0 42 1.0
 17 18 1.0 20 1.0 43 1.0
 18 19 1.0
 19
 20 21 1.0 28 1.0 44 1.0
 21 22 1.0
 22
 23 24 1.0 26 1.0 39 1.0 40 1.0
 24 25 1.0
 25
 26 27 1.0 41 1.0
 27 28 1.0
 28 29 1.0 45 1.0
 29 30 1.0
 30
 31
 32
 33
 34
 35
 36
 37
 38
 39
 40
 41
 42
 43
 44
 45

