# freq=raman b3lyp/6-31+g(2d,p) geom=connectivity

550 5918/5918.com

0 1
 O                 10.01200000    7.03300000   10.75100000
 C                 10.57300000    7.32600000   12.03900000
 C                 10.63900000    8.78600000   12.45400000
 O                 11.40300000    9.63600000   11.58600000
 H                 11.06600000    9.45200000   10.66300000
 C                 11.13400000    8.84800000   13.89000000
 O                 10.64700000   10.02800000   14.54600000
 H                 11.01000000   10.87300000   14.15400000
 C                 10.01000000    5.05000000   12.72500000
 O                  9.51300000    4.05100000   13.62800000
 H                  9.32400000    3.26600000   13.03800000
 C                  9.74700000    6.51700000   13.02600000
 O                 10.29700000    6.49300000   14.35100000
 C                 10.35600000    7.86900000   14.75400000
 O                 10.98300000    7.70300000   16.03400000
 C                 10.33100000    7.56400000   17.30500000
 C                  9.78600000    6.21500000   17.74400000
 O                  8.63800000    6.03900000   16.90100000
 H                  8.82700000    6.18400000   15.93000000
 C                  9.09000000    6.03300000   19.08300000
 O                  8.54600000    4.76200000   19.46600000
 H                  7.63400000    4.73200000   19.05500000
 C                 11.44400000    9.48100000   18.42900000
 O                 12.32900000    9.91900000   19.47000000
 H                 13.31800000    9.78100000   19.41500000
 C                 11.28300000    7.96900000   18.41900000
 O                 10.73400000    7.83700000   19.73800000
 C                 10.14200000    6.56600000   20.04200000
 O                  9.72000000    6.64900000   21.41100000
 H                 10.49096655    6.68361717   21.98197481
 H                 10.94120004    5.85489535   20.01942877
 H                  8.27432633    6.72530122   19.10019005
 H                 10.50069077    5.43706615   17.57389408
 H                  9.51282306    8.25348437   17.31488966
 H                 12.22869022    7.47556659   18.33477723
 H                 11.83587749    9.79528354   17.48424718
 H                 10.48476721    9.93193521   18.57538951
 H                 10.71998360    6.88918441   10.11880042
 H                 11.07029604    4.92225303   12.65902251
 H                  9.59695602    4.84258354   11.75997509
 H                  8.70510840    6.76008807   13.00956557
 H                 11.57106830    6.94059462   12.05391215
 H                  9.63584642    9.15824882   12.45029634
 H                 12.19356245    8.72972929   13.98077141
 H                  9.36129668    8.23761217   14.89396560

 1 2 1.0 38 1.0
 2 3 1.0 12 1.0 42 1.0
 3 4 1.0 6 1.0 43 1.0
 4 5 1.0
 5
 6 7 1.0 14 1.0 44 1.0
 7 8 1.0
 8
 9 10 1.0 12 1.0 39 1.0 40 1.0
 10 11 1.0
 11
 12 13 1.0 41 1.0
 13 14 1.0
 14 15 1.0 45 1.0
 15 16 1.0
 16 17 1.0 26 1.0 34 1.0
 17 18 1.0 20 1.0 33 1.0
 18 19 1.0
 19
 20 21 1.0 28 1.0 32 1.0
 21 22 1.0
 22
 23 24 1.0 26 1.0 36 1.0 37 1.0
 24 25 1.0
 25
 26 27 1.0 35 1.0
 27 28 1.0
 28 29 1.0 31 1.0
 29 30 1.0
 30
 31
 32
 33
 34
 35
 36
 37
 38
 39
 40
 41
 42
 43
 44
 45

