# freq=raman b3lyp/6-31+g(2d,p) geom=connectivity

350 7863/7863.com

0 1
 O                  7.87600000    7.33300000   12.24900000
 C                  8.45400000    7.83900000   13.46100000
 C                  7.95100000    9.19200000   13.93700000
 O                  8.14100000   10.12400000   12.86300000
 H                  7.62400000    9.60200000   12.18400000
 C                  8.59400000    9.47200000   15.28600000
 O                  8.01600000   10.70800000   15.73000000
 H                  8.29000000   10.94600000   16.66100000
 C                  8.79600000    5.40800000   14.08300000
 O                  8.20600000    4.59300000   13.06000000
 H                  8.61900000    3.70000000   13.24200000
 C                  8.08600000    6.71100000   14.41100000
 O                  8.56700000    7.00200000   15.73100000
 C                  8.27200000    8.31800000   16.22100000
 O                  9.01300000    8.49500000   17.43700000
 C                  8.47900000    8.25900000   18.74800000
 C                  9.04100000    6.92700000   19.21500000
 O                  8.64200000    5.85400000   18.35000000
 H                  8.79700000    6.19900000   17.42400000
 C                  8.68400000    6.55300000   20.64500000
 O                  9.54800000    5.55800000   21.21300000
 H                  9.24600000    5.21400000   22.10300000
 C                  8.35900000   10.62500000   19.43400000
 O                  8.52200000   11.29500000   18.17600000
 H                  8.23700000   12.25100000   18.25400000
 C                  8.96200000    9.27100000   19.77400000
 O                  8.40600000    8.95500000   21.05800000
 C                  8.90800000    7.72100000   21.59100000
 O                  8.02800000    7.42800000   22.68700000
 H                  8.57552585    7.07970139   11.64228474
 H                  8.84772244    4.82596607   14.97936002
 H                  9.79516958    5.64378624   13.78139595
 H                  7.02615849    6.56458775   14.42512209
 H                  9.51801215    7.87712308   13.35458207
 H                  6.89695633    9.10575515   14.09964615
 H                  9.65323509    9.57642547   15.17638088
 H                  7.22871547    8.36028717   16.45481443
 H                  8.54703632    7.21942694   23.46719137
 H                  8.71500600   11.30418753   20.18023322
 H                  7.30405783   10.52582193   19.58286478
 H                 10.03044025    9.31624296   19.80989591
 H                  7.40977730    8.22802482   18.72147899
 H                 10.10732934    6.99854671   19.16281941
 H                  7.66577508    6.22842537   20.69762426
 H                  9.92768637    7.79891273   21.90575277

 1 2 1.0 30 1.0
 2 3 1.0 12 1.0 34 1.0
 3 4 1.0 6 1.0 35 1.0
 4 5 1.0
 5
 6 7 1.0 14 1.0 36 1.0
 7 8 1.0
 8
 9 10 1.0 12 1.0 31 1.0 32 1.0
 10 11 1.0
 11
 12 13 1.0 33 1.0
 13 14 1.0
 14 15 1.0 37 1.0
 15 16 1.0
 16 17 1.0 26 1.0 42 1.0
 17 18 1.0 20 1.0 43 1.0
 18 19 1.0
 19
 20 21 1.0 28 1.0 44 1.0
 21 22 1.0
 22
 23 24 1.0 26 1.0 39 1.0 40 1.0
 24 25 1.0
 25
 26 27 1.0 41 1.0
 27 28 1.0
 28 29 1.0 45 1.0
 29 38 1.0
 30
 31
 32
 33
 34
 35
 36
 37
 38
 39
 40
 41
 42
 43
 44
 45

