# freq=raman b3lyp/6-31+g(d,p) geom=connectivity

310 8000.com

0 1
 O                  7.55100000    7.54500000   22.76700000
 C                  8.10300000    7.91400000   24.03900000
 C                  7.48900000    9.21000000   24.54200000
 O                  7.68600000   10.33500000   23.67300000
 H                  7.44900000   10.07000000   22.73900000
 C                  8.15500000    9.59300000   25.85400000
 O                  7.60000000   10.73700000   26.51900000
 H                  8.15200000   10.91000000   27.33500000
 C                  8.22800000    5.41600000   24.79600000
 O                  7.72300000    4.66400000   23.68200000
 H                  7.94500000    3.69300000   23.77100000
 C                  7.81700000    6.85000000   25.08600000
 O                  8.51800000    7.19100000   26.29100000
 C                  8.02400000    8.42900000   26.82300000
 O                  8.75500000    8.77500000   28.00900000
 C                  8.06100000    8.37400000   29.19900000
 C                  8.60000000    7.07400000   29.77400000
 O                  8.74000000    5.99700000   28.83500000
 H                  9.21100000    6.33000000   28.01800000
 C                  7.89800000    6.67700000   31.06200000
 O                  8.23700000    5.38300000   31.58300000
 H                  8.12100000    5.39100000   32.57600000
 C                  8.18200000   10.76900000   30.01900000
 O                  8.66000000   11.46600000   28.85900000
 H                  8.44900000   12.43800000   28.95600000
 C                  8.53600000    9.31600000   30.29300000
 O                  7.76800000    9.03900000   31.47300000
 C                  8.28000000    7.80800000   32.00300000
 O                  7.68000000    7.50400000   33.27100000
 H                  8.26333508    7.36569701   22.14891491
 H                  8.36846100    7.34801821   33.92160828
 H                  9.34406548    7.86230682   32.10156684
 H                  6.84107655    6.71065777   30.89865992
 H                  9.60199749    7.30440619   30.07033431
 H                  6.99667246    8.37359026   29.08896946
 H                  9.58336957    9.20058033   30.47899810
 H                  8.50724897   11.33005346   30.87007704
 H                  7.11379963   10.82506324   29.99245035
 H                  9.19372921    9.77320740   25.67106032
 H                  6.44120147    9.06644596   24.70451304
 H                  9.16126364    8.03872954   23.94194015
 H                  6.99183486    8.30686353   27.07720033
 H                  6.76724442    6.86069409   25.29287886
 H                  7.99403828    4.85065836   25.67381020
 H                  9.29370330    5.42003276   24.70029100

 1 2 1.0 30 1.0
 2 3 1.0 12 1.0 41 1.0
 3 4 1.0 6 1.0 40 1.0
 4 5 1.0
 5
 6 7 1.0 14 1.0 39 1.0
 7 8 1.0
 8
 9 10 1.0 12 1.0 44 1.0 45 1.0
 10 11 1.0
 11
 12 13 1.0 43 1.0
 13 14 1.0
 14 15 1.0 42 1.0
 15 16 1.0
 16 17 1.0 26 1.0 35 1.0
 17 18 1.0 20 1.0 34 1.0
 18 19 1.0
 19
 20 21 1.0 28 1.0 33 1.0
 21 22 1.0
 22
 23 24 1.0 26 1.0 37 1.0 38 1.0
 24 25 1.0
 25
 26 27 1.0 36 1.0
 27 28 1.0
 28 29 1.0 32 1.0
 29 31 1.0
 30
 31
 32
 33
 34
 35
 36
 37
 38
 39
 40
 41
 42
 43
 44
 45

