# freq=raman b3lyp/6-31+g(2df,p) geom=connectivity

450 7000.com

0 1
 O                 10.86800000    7.41100000   11.29300000
 C                 11.68400000    7.68200000   12.44200000
 C                 11.88900000    9.14000000   12.81900000
 O                 12.85800000    9.78600000   11.98100000
 H                 12.52300000    9.78900000   11.03800000
 C                 12.50600000    9.35200000   14.19200000
 O                 12.47600000   10.66900000   14.76000000
 H                 12.86300000   11.22100000   14.02100000
 C                 10.83800000    5.51100000   13.23100000
 O                 10.30100000    4.64600000   14.24200000
 H                 10.09700000    3.85800000   13.66100000
 C                 11.00900000    6.97400000   13.60600000
 O                 11.85100000    7.10500000   14.76100000
 C                 11.78300000    8.47000000   15.19700000
 O                 12.51100000    8.33800000   16.42700000
 C                 11.80100000    8.32300000   17.67400000
 C                 11.32500000    6.93700000   18.07600000
 O                 10.45200000    6.34000000   17.10500000
 H                 10.89400000    6.07700000   16.24700000
 C                 10.42700000    7.05300000   19.29700000
 O                  9.77800000    5.88000000   19.81000000
 H                  8.92500000    5.76000000   19.30300000
 C                 12.98300000   10.27300000   18.43400000
 O                 13.36900000   10.99000000   19.61600000
 H                 14.11200000   10.48900000   20.05800000
 C                 12.62100000    8.85400000   18.83900000
 O                 11.84200000    8.93500000   20.04100000
 C                 11.27500000    7.66700000   20.39900000
 O                 10.64500000    7.85700000   21.67400000
 H                 11.31767030    7.95795168   22.35143887
 H                 12.09384219    6.99707017   20.55897338
 H                  9.65773550    7.75649263   19.05569055
 H                 12.15659474    6.29547456   18.28043900
 H                 10.93930225    8.94817721   17.56662004
 H                 13.50049342    8.26352687   18.98977402
 H                 13.79767778   10.25417844   17.74056950
 H                 12.13614142   10.74750614   17.98391727
 H                 11.43059010    7.23243164   10.53589649
 H                 11.79606318    5.12956714   12.94547608
 H                 10.19302529    5.46222985   12.37863324
 H                 10.05373250    7.41614024   13.79803127
 H                 12.64439599    7.23698243   12.28547873
 H                 10.95683513    9.66189973   12.75908908
 H                 13.52726484    9.03612557   14.14572390
 H                 10.77384369    8.78548808   15.36122793

 1 2 1.0 38 1.0
 2 3 1.0 12 1.0 42 1.0
 3 4 1.0 6 1.0 43 1.0
 4 5 1.0
 5
 6 7 1.0 14 1.0 44 1.0
 7 8 1.0
 8
 9 10 1.0 12 1.0 39 1.0 40 1.0
 10 11 1.0
 11
 12 13 1.0 41 1.0
 13 14 1.0
 14 15 1.0 45 1.0
 15 16 1.0
 16 17 1.0 26 1.0 34 1.0
 17 18 1.0 20 1.0 33 1.0
 18 19 1.0
 19
 20 21 1.0 28 1.0 32 1.0
 21 22 1.0
 22
 23 24 1.0 26 1.0 36 1.0 37 1.0
 24 25 1.0
 25
 26 27 1.0 35 1.0
 27 28 1.0
 28 29 1.0 31 1.0
 29 30 1.0
 30
 31
 32
 33
 34
 35
 36
 37
 38
 39
 40
 41
 42
 43
 44
 45

