# freq=raman b3lyp/6-31+g(2d,p) geom=connectivity
310 8000.com
310 8000.com
C           8.54700         7.95900         3.01700
0 1
O           7.68600        10.33500        23.67300
H           7.44900        10.07000        22.73900
C           8.15500         9.59300        25.85400
O           7.60000        10.73700        26.51900
H           8.15200        10.91000        27.33500
C           8.22800         5.41600        24.79600
O           7.72300         4.66400        23.68200
H           7.94500         3.69300        23.77100
C           7.81700         6.85000        25.08600
O           8.51800         7.19100        26.29100
C           8.02400         8.42900        26.82300
O           8.75500         8.77500        28.00900
C           8.06100         8.37400        29.19900
C           8.60000         7.07400        29.77400
O           8.74000         5.99700        28.83500
H           9.21100         6.33000        28.01800
C           7.89800         6.67700        31.06200
O           8.23700         5.38300        31.58300
H           8.12100         5.39100        32.57600
C           8.18200        10.76900        30.01900
O           8.66000        11.46600        28.85900
H           8.44900        12.43800        28.95600
C           8.53600         9.31600        30.29300
O           7.76800         9.03900        31.47300
C           8.28000         7.80800        32.00300
O           7.68000         7.50400        33.27100
C           8.43500         7.92900        34.41400
C           7.79400         9.20100        34.94400
O           7.97600        10.35900        34.11700

