# freq=raman b3lyp/6-31+g(2d,p) geom=connectivity

500 7116/7116.com

0 1
O           8.79400         7.32300        12.11800
C           9.56100         7.44800        13.32400
C           9.44600         8.80700        13.99500
O           9.74600         9.84000        13.04600
H           9.47400         9.56600        12.12300
C          10.14900         8.92700        15.33800
O          10.08700        10.26700        15.84900
H          10.32500        10.85000        15.07200
C           9.32400         5.00000        13.77700
O           8.64600         3.99800        14.54900
H           8.79600         3.13500        14.06700
C           9.07700         6.40100        14.31300
O           9.72600         6.51700        15.58700
C           9.55900         7.81100        16.18500
O          10.40300         7.53700        17.31300
C           9.67300         7.33500        18.53200
C           9.62400         5.82700        18.71800
O           8.89800         5.06100        17.74600
H           9.23600         5.02000        16.80600
C           9.05900         5.50000        20.09100
O           8.62700         4.14500        20.28800
H           8.28300         3.84800        19.39700
C          10.44300         9.44800        19.61100
O          11.24300        10.21100        20.52600
H          11.14500        11.16500        20.24200
C          10.38000         7.93400        19.73600
O           9.76200         7.59900        20.98700
C           9.75800         6.18900        21.25200
O           9.05200         6.31200        22.49500

