# freq=raman b3lyp/6-31+g(2d,p) geom=connectivity

310 8571/8571.com

0 1
 O                  7.51100000    7.70300000   12.29200000
 C                  8.20600000    8.07200000   13.49200000
 C                  7.65100000    9.43100000   13.88200000
 O                  7.88200000   10.40500000   12.85300000
 H                  7.64100000    9.90900000   12.01900000
 C                  7.88200000    9.75500000   15.34900000
 O                  6.95900000   10.77100000   15.76700000
 H                  7.05900000   11.01500000   16.73200000
 C                  8.38500000    5.60000000   14.29700000
 O                  8.06600000    4.79600000   13.15200000
 H                  8.19700000    3.82300000   13.33800000
 C                  7.77500000    6.98200000   14.46100000
 O                  8.19100000    7.37100000   15.77900000
 C                  7.61300000    8.58400000   16.28100000
 O                  8.36100000    8.87100000   17.47200000
 C                  7.76000000    8.53000000   18.73000000
 C                  8.29200000    7.17000000   19.15400000
 O                  7.79800000    6.21200000   18.20600000
 H                  8.09400000    6.45400000   17.28200000
 C                  7.87300000    6.68900000   20.53300000
 O                  8.62600000    5.57800000   21.04100000
 H                  8.28300000    5.44300000   21.97100000
 C                  7.61600000   10.96100000   19.54300000
 O                  7.99300000   11.60800000   18.31800000
 H                  8.63200000   12.34400000   18.54100000
 C                  8.07800000    9.54000000   19.82000000
 O                  7.58900000    9.16300000   21.11600000
 C                  8.06900000    7.86100000   21.48200000
 O                  7.49300000    7.56900000   22.76300000
 H                  8.19345159    7.42309961   23.40306300
 H                  7.97092344   11.57202474   20.34647876
 H                  6.54683645   10.96064188   19.58529876
 H                  9.14477391    9.57604201   19.89479568
 H                  6.69885267    8.46914053   18.60686399
 H                  9.36072027    7.18684982   19.10447153
 H                  6.83590267    6.42662591   20.51088739
 H                  9.12435097    7.95635918   21.63046199
 H                  8.11673598    5.03303436   15.16388199
 H                  9.44794741    5.72204150   14.30919361
 H                  8.14787425    7.49187133   11.60540269
 H                  6.70849168    6.89810585   14.44046282
 H                  9.26641705    8.09142580   13.35044325
 H                  6.59150518    9.28815891   13.83764741
 H                  8.88482981   10.10157802   15.48726075
 H                  6.56930239    8.47147559   16.48820413

 1 2 1.0 40 1.0
 2 3 1.0 12 1.0 42 1.0
 3 4 1.0 6 1.0 43 1.0
 4 5 1.0
 5
 6 7 1.0 14 1.0 44 1.0
 7 8 1.0
 8
 9 10 1.0 12 1.0 38 1.0 39 1.0
 10 11 1.0
 11
 12 13 1.0 41 1.0
 13 14 1.0
 14 15 1.0 45 1.0
 15 16 1.0
 16 17 1.0 26 1.0 34 1.0
 17 18 1.0 20 1.0 35 1.0
 18 19 1.0
 19
 20 21 1.0 28 1.0 36 1.0
 21 22 1.0
 22
 23 24 1.0 26 1.0 31 1.0 32 1.0
 24 25 1.0
 25
 26 27 1.0 33 1.0
 27 28 1.0
 28 29 1.0 37 1.0
 29 30 1.0
 30
 31
 32
 33
 34
 35
 36
 37
 38
 39
 40
 41
 42
 43
 44
 45

