# freq=raman b3lyp/6-31+g(2d,p) geom=connectivity

310 8571/8571.com

0 1
O           7.51100         7.70300        12.29200
C           8.20600         8.07200        13.49200
C           7.65100         9.43100        13.88200
O           7.88200        10.40500        12.85300
H           7.64100         9.90900        12.01900
C           7.88200         9.75500        15.34900
O           6.95900        10.77100        15.76700
H           7.05900        11.01500        16.73200
C           8.38500         5.60000        14.29700
O           8.06600         4.79600        13.15200
H           8.19700         3.82300        13.33800
C           7.77500         6.98200        14.46100
O           8.19100         7.37100        15.77900
C           7.61300         8.58400        16.28100
O           8.36100         8.87100        17.47200
C           7.76000         8.53000        18.73000
C           8.29200         7.17000        19.15400
O           7.79800         6.21200        18.20600
H           8.09400         6.45400        17.28200
C           7.87300         6.68900        20.53300
O           8.62600         5.57800        21.04100
H           8.28300         5.44300        21.97100
C           7.61600        10.96100        19.54300
O           7.99300        11.60800        18.31800
H           8.63200        12.34400        18.54100
C           8.07800         9.54000        19.82000
O           7.58900         9.16300        21.11600
C           8.06900         7.86100        21.48200
O           7.49300         7.56900        22.76300

