# freq=raman b3lyp/6-31+g(2d,p) geom=connectivity

280 8952/8952.com

0 1
O           7.67100         7.46200        12.32300
C           8.08600         7.92200        13.61800
C           7.46800         9.21000        14.13800
O           7.45200        10.29600        13.20000
H           6.92600        10.02400        12.39400
C           8.06200         9.63000        15.47200
O           7.43000        10.78900        16.03400
H           7.86500        10.92800        16.92400
C           8.50500         5.44000        14.41200
O           7.89500         4.71000        13.33800
H           7.97400         3.72400        13.48300
C           7.82500         6.78700        14.59400
O           8.27300         7.19000        15.89700
C           7.82900         8.45500        16.40800
O           8.67000         8.63900        17.55700
C           8.03300         8.39500        18.82000
C           8.58100         7.09400        19.38300
O           8.49400         6.06500        18.38600
H           8.82000         6.44600        17.52100
C           8.01700         6.65800        20.72500
O           8.70400         5.51000        21.24500
H           8.35400         5.31800        22.16100
C           8.03800        10.79700        19.53500
O           8.28600        11.53100        18.32700
H           8.28900        12.49900        18.57700
C           8.54900         9.39800        19.83900
O           8.13300         9.12100        21.18400
C           8.40000         7.79300        21.65900
O           7.55000         7.71600        22.81200

