# freq=raman b3lyp/6-31+g(2d,p) geom=connectivity

473 7160/7160.com

0 1
O           7.66500         7.50900        12.09100
C           8.08900         7.91300        13.40100
C           7.68400         9.27000        13.95300
O           7.96300        10.24000        12.93300
H           7.75600         9.76100        12.08000
C           8.34300         9.64900        15.26900
O           7.89100        10.91400        15.77300
H           8.08000        11.05700        16.74400
C           8.13600         5.55500        14.02700
O           7.60600         4.78500        12.93800
H           7.88700         3.82900        13.02300
C           7.64500         6.92400        14.46700
O           8.31400         7.17400        15.71200
C           8.05300         8.49300        16.21300
O           8.83200         8.59700        17.41300
C           8.35800         8.27500        18.72900
C           8.67400         6.82700        19.06600
O           8.29200         5.92700        18.01500
H           8.41100         6.33600        17.11000
C           8.15300         6.45800        20.44500
O           8.59500         5.26200        21.10300
H           8.14800         5.25900        21.99800
C           8.44700        10.68100        19.54800
O           8.89100        11.43100        18.40900
H           8.66500        12.38300        18.61800
C           8.84300         9.23600        19.80200
O           8.09800         8.88400        20.97700
C           8.44100         7.57000        21.44100
O           7.66300         7.54900        22.64700

