# freq=raman b3lyp/6-31+g(2d,p) geom=connectivity

473 7160/7160.com

0 1
 O                  7.66500000    7.50900000   12.09100000
 C                  8.08900000    7.91300000   13.40100000
 C                  7.68400000    9.27000000   13.95300000
 O                  7.96300000   10.24000000   12.93300000
 H                  7.75600000    9.76100000   12.08000000
 C                  8.34300000    9.64900000   15.26900000
 O                  7.89100000   10.91400000   15.77300000
 H                  8.08000000   11.05700000   16.74400000
 C                  8.13600000    5.55500000   14.02700000
 O                  7.60600000    4.78500000   12.93800000
 H                  7.88700000    3.82900000   13.02300000
 C                  7.64500000    6.92400000   14.46700000
 O                  8.31400000    7.17400000   15.71200000
 C                  8.05300000    8.49300000   16.21300000
 O                  8.83200000    8.59700000   17.41300000
 C                  8.35800000    8.27500000   18.72900000
 C                  8.67400000    6.82700000   19.06600000
 O                  8.29200000    5.92700000   18.01500000
 H                  8.41100000    6.33600000   17.11000000
 C                  8.15300000    6.45800000   20.44500000
 O                  8.59500000    5.26200000   21.10300000
 H                  8.14800000    5.25900000   21.99800000
 C                  8.44700000   10.68100000   19.54800000
 O                  8.89100000   11.43100000   18.40900000
 H                  8.66500000   12.38300000   18.61800000
 C                  8.84300000    9.23600000   19.80200000
 O                  8.09800000    8.88400000   20.97700000
 C                  8.44100000    7.57000000   21.44100000
 O                  7.66300000    7.54900000   22.64700000
 H                  8.25015024    7.53577672   23.40639432
 H                  9.48016690    7.54920175   21.69516451
 H                  7.08915548    6.38401902   20.35746913
 H                  9.74031079    6.76533209   19.12986215
 H                  7.29170506    8.35948120   18.70110670
 H                  9.89589169    9.14114398   19.96729196
 H                  8.75232850   11.23411711   20.41156006
 H                  7.37744578   10.70147293   19.52487783
 H                  8.06232606    4.92754864   14.89058378
 H                  9.17933493    5.67209680   13.82050409
 H                  6.58192829    6.93320465   14.58821803
 H                  8.43512959    7.34009231   11.54330427
 H                  9.15880411    7.89647448   13.38891404
 H                  6.62588736    9.25561079   14.11140010
 H                  9.40045937    9.70475172   15.11547010
 H                  7.01913682    8.54336530   16.48409089

 1 2 1.0 41 1.0
 2 3 1.0 12 1.0 42 1.0
 3 4 1.0 6 1.0 43 1.0
 4 5 1.0
 5
 6 7 1.0 14 1.0 44 1.0
 7 8 1.0
 8
 9 10 1.0 12 1.0 38 1.0 39 1.0
 10 11 1.0
 11
 12 13 1.0 40 1.0
 13 14 1.0
 14 15 1.0 45 1.0
 15 16 1.0
 16 17 1.0 26 1.0 34 1.0
 17 18 1.0 20 1.0 33 1.0
 18 19 1.0
 19
 20 21 1.0 28 1.0 32 1.0
 21 22 1.0
 22
 23 24 1.0 26 1.0 36 1.0 37 1.0
 24 25 1.0
 25
 26 27 1.0 35 1.0
 27 28 1.0
 28 29 1.0 31 1.0
 29 30 1.0
 30
 31
 32
 33
 34
 35
 36
 37
 38
 39
 40
 41
 42
 43
 44
 45

