# freq=raman b3lyp/6-31+g(d,p) geom=connectivity

450 5000.com

0 1
O           9.38300         7.63400        21.62700
C          10.11100         7.75300        22.85700
C          10.37800         9.17600        23.31800
O          11.38200         9.69900        22.43600
H          10.94000         9.65200        21.54000
C          10.87000         9.34700        24.74600
O          10.40400        10.63400        25.17700
H          10.76500        11.44100        24.71000
C           9.55300         5.46200        23.70800
O           8.94900         4.51700        24.60500
H           8.86200         3.67600        24.07100
C           9.55900         6.94900        24.02300
O          10.42800         6.93200        25.16500
C          10.40500         8.26200        25.70400
O          11.08800         8.35200        26.96300
C          10.37700         8.23500        28.20400
C          10.08600         6.79200        28.58400
O           9.34700         6.07100        27.58700
H           9.67300         6.21000        26.65200
C           9.68700         6.50100        30.02100
O           9.35000         5.13100        30.28700
H           8.69500         4.99200        29.54500
C          11.66800        10.11400        29.03400
O          12.58100        10.88700        29.82500
H          13.53600        10.61400        29.70700
C          11.30100         8.66900        29.33000
O          10.80200         8.60300        30.67300
C          10.58000         7.22700        31.01400
O           9.92300         7.11500        32.28600

