# freq=raman b3lyp/6-31+g(d,p) geom=connectivity

310 9000.com

0 1
 O                  7.66800000    7.38600000   22.65700000
 C                  8.35900000    7.74200000   23.86400000
 C                  7.80500000    9.11300000   24.21700000
 O                  7.94000000   10.16200000   23.24700000
 H                  7.60000000    9.67700000   22.44100000
 C                  8.14400000    9.59100000   25.61900000
 O                  7.37400000   10.67100000   26.16600000
 H                  7.59200000   10.82700000   27.12900000
 C                  8.24600000    5.27200000   24.63400000
 O                  8.08700000    4.57000000   23.39200000
 H                  8.14200000    3.59300000   23.59700000
 C                  7.99800000    6.73900000   24.94700000
 O                  8.47400000    7.22400000   26.21000000
 C                  7.88700000    8.47000000   26.61300000
 O                  8.70900000    8.58000000   27.78400000
 C                  8.24400000    8.23300000   29.09700000
 C                  8.73900000    6.85200000   29.49500000
 O                  8.57800000    5.72400000   28.62300000
 H                  8.55600000    5.91400000   27.64200000
 C                  8.42600000    6.56200000   30.95400000
 O                  9.10100000    5.41100000   31.48200000
 H                  8.69500000    5.25600000   32.38300000
 C                  8.15700000   10.70300000   29.77700000
 O                  8.23900000   11.36500000   28.50700000
 H                  8.09300000   12.34800000   28.62600000
 C                  8.66800000    9.30500000   30.08700000
 O                  8.34300000    9.02900000   31.45700000
 C                  8.76300000    7.72200000   31.87600000
 O                  7.92300000    7.54800000   33.02700000
 H                  8.30733717    7.18340737   21.97011994
 H                  8.58754883    4.67856770   25.45624236
 H                  7.90445117    5.86543230   23.81175764
 H                  6.93291226    6.80671160   25.02383258
 H                  9.41668329    7.78065354   23.70679963
 H                  6.74870540    8.94689915   24.25639821
 H                  9.18068891    9.85376307   25.65264035
 H                  6.85068518    8.36560551   26.85805790
 H                  8.64326596   11.35186700   30.47515258
 H                  7.11868803   10.69708804   30.03540529
 H                  9.73551828    9.35428270   30.03337232
 H                  8.46970826    7.43004667   33.80725450
 H                  9.79700638    7.71503220   32.15110410
 H                  7.37364631    6.38324450   31.02814978
 H                  9.80101571    6.98238445   29.49974638
 H                  7.17454858    8.20740069   29.07423321

 1 2 1.0 30 1.0
 2 3 1.0 12 1.0 34 1.0
 3 4 1.0 6 1.0 35 1.0
 4 5 1.0
 5
 6 7 1.0 14 1.0 36 1.0
 7 8 1.0
 8
 9 10 1.0 12 1.0 31 1.0 32 1.0
 10 11 1.0
 11
 12 13 1.0 33 1.0
 13 14 1.0
 14 15 1.0 37 1.0
 15 16 1.0
 16 17 1.0 26 1.0 45 1.0
 17 18 1.0 20 1.0 44 1.0
 18 19 1.0
 19
 20 21 1.0 28 1.0 43 1.0
 21 22 1.0
 22
 23 24 1.0 26 1.0 38 1.0 39 1.0
 24 25 1.0
 25
 26 27 1.0 40 1.0
 27 28 1.0
 28 29 1.0 42 1.0
 29 41 1.0
 30
 31
 32
 33
 34
 35
 36
 37
 38
 39
 40
 41
 42
 43
 44
 45

