# freq=raman b3lyp/6-31+g(2d,p) geom=connectivity

483 8302/8302.com

0 1
O           7.37600         7.83500        12.26200
C           8.05400         8.10500        13.49800
C           7.41500         9.33600        14.12000
O           7.50300        10.38500        13.14500
H           7.56200         9.86600        12.29200
C           8.11900         9.70100        15.41600
O           7.50400        10.87000        15.97800
H           7.95900        11.08200        16.84300
C           8.48500         5.63300        14.13500
O           7.81000         4.93100        13.08100
H           7.90100         3.95200        13.26500
C           7.93700         6.99500        14.52900
O           8.53600         7.43400        15.75700
C           7.96700         8.57100        16.42100
O           8.76800         8.81200        17.58700
C           8.16000         8.40400        18.82100
C           8.89300         7.18900        19.36600
O           9.03700         6.19400        18.34300
H           9.41200         6.74500        17.59700
C           8.20200         6.77100        20.65400
O           8.71100         5.54100        21.19000
H           8.49000         5.46600        22.16200
C           7.91500        10.88700        19.54600
O           8.44000        11.49100        18.35500
H           8.30200        12.48100        18.37900
C           8.41100         9.48500        19.86100
O           7.76800         9.10100        21.08500
C           8.30800         7.90300        21.66200
O           7.62300         7.63200        22.89400

