# freq=raman b3lyp/6-31+g(2df,p) geom=connectivity

500 9000.com

0 1
 O                  8.79600000    6.81500000   11.96500000
 C                  9.26400000    7.25400000   13.24800000
 C                  9.15300000    8.68700000   13.74300000
 O                  9.76000000    9.58100000   12.79900000
 H                  9.36500000    9.37100000   11.90400000
 C                  9.37200000    8.96700000   15.22100000
 O                  8.69000000   10.15200000   15.65600000
 H                  8.88400000   11.02700000   15.21300000
 C                  9.28000000    4.92400000   13.81100000
 O                  8.65300000    3.88000000   14.57100000
 H                  9.03100000    3.02100000   14.22500000
 C                  8.81100000    6.27700000   14.32100000
 O                  9.37800000    6.54500000   15.61100000
 C                  8.96600000    7.81800000   16.13000000
 O                  9.82300000    7.59500000   17.25900000
 C                  9.19400000    7.27600000   18.50900000
 C                  8.80200000    5.82900000   18.75800000
 O                  7.96800000    5.28700000   17.72300000
 H                  8.44400000    5.51300000   16.87300000
 C                  8.18000000    5.59800000   20.12500000
 O                  7.90300000    4.19500000   20.24400000
 H                  7.29700000    3.95300000   19.48600000
 C                  9.77500000    9.30000000   19.42000000
 O                 10.19300000   10.32600000   20.33200000
 H                 10.21000000   11.17000000   19.79600000
 C                 10.01500000    7.82000000   19.66700000
 O                  9.40400000    7.60900000   20.94800000
 C                  9.07400000    6.23200000   21.17800000
 O                  8.32400000    6.32600000   22.39800000
 H                  8.92844817    6.38329474   23.14161262
 H                  9.95978024    5.65000424   21.32488194
 H                  7.24266540    6.11357065   20.14715282
 H                  9.71070189    5.26432769   18.74050560
 H                  8.27654894    7.82656381   18.51693985
 H                 11.04971987    7.55035289   19.62769064
 H                  8.71904854    9.41858045   19.29428132
 H                 10.23046262    9.52759543   18.47890802
 H                  9.54717765    6.62147720   11.39941971
 H                 10.34241809    4.85235157   13.91604434
 H                  9.01622471    4.82119191   12.77913126
 H                  7.74314098    6.28576352   14.38808432
 H                 10.32115789    7.10061798   13.18642774
 H                  8.10974135    8.89470947   13.62737919
 H                 10.41999735    9.13075064   15.36166729
 H                  7.92998032    7.83286521   16.39709970

 1 2 1.0 38 1.0
 2 3 1.0 12 1.0 42 1.0
 3 4 1.0 6 1.0 43 1.0
 4 5 1.0
 5
 6 7 1.0 14 1.0 44 1.0
 7 8 1.0
 8
 9 10 1.0 12 1.0 39 1.0 40 1.0
 10 11 1.0
 11
 12 13 1.0 41 1.0
 13 14 1.0
 14 15 1.0 45 1.0
 15 16 1.0
 16 17 1.0 26 1.0 34 1.0
 17 18 1.0 20 1.0 33 1.0
 18 19 1.0
 19
 20 21 1.0 28 1.0 32 1.0
 21 22 1.0
 22
 23 24 1.0 26 1.0 36 1.0 37 1.0
 24 25 1.0
 25
 26 27 1.0 35 1.0
 27 28 1.0
 28 29 1.0 31 1.0
 29 30 1.0
 30
 31
 32
 33
 34
 35
 36
 37
 38
 39
 40
 41
 42
 43
 44
 45

