# freq=raman b3lyp/6-31+g(2d,p) geom=connectivity

423 7814/7814.com

0 1
O           7.48600         7.57000        12.34000
C           8.07400         7.94600        13.59400
C           7.74000         9.36100        14.03500
O           8.07000        10.33100        13.02900
H           8.01100         9.81200        12.17600
C           8.35400         9.75700        15.36900
O           7.93100        11.07100        15.75800
H           8.29900        11.30300        16.65900
C           8.27000         5.55800        14.53600
O           7.76500         4.83200        13.40500
H           8.03600         3.87100        13.46600
C           7.78700         6.98500        14.73600
O           8.49800         7.38100        15.91800
C           8.05800         8.66500        16.38400
O           8.81100         8.86000        17.59100
C           8.26100         8.31700        18.80000
C           8.99800         7.05300        19.21300
O           9.21700         6.10600        18.15800
H           9.54800         6.62800        17.37200
C           8.46000         6.60400        20.56200
O           8.90100         5.31800        21.02000
H           8.47200         5.14300        21.90600
C           8.20600        10.81700        19.47700
O           8.68900        11.45200        18.28500
H           8.65800        12.43900        18.44100
C           8.67100         9.40300        19.78100
O           8.29800         9.00700        21.10900
C           8.67500         7.70700        21.58600
O           7.87200         7.57800        22.76800

