# freq=raman b3lyp/6-31+g(2d,p) geom=connectivity
290 5000.com
290 5000.com
C           8.40000         8.07400         3.02900
0 1
O           7.77500        10.37300        23.55200
H           7.54000        10.06200        22.63100
C           7.94500         9.81900        25.90100
O           7.18100        10.94400        26.35700
H           7.56700        11.34900        27.18600
C           8.33800         5.60800        24.80700
O           7.60100         4.89300        23.80500
H           8.00500         3.99100        23.95300
C           7.89500         7.04600        25.02100
O           8.59600         7.51300        26.18300
C           7.97900         8.62700        26.84500
O           8.82100         8.82700        27.98900
C           8.28700         8.44800        29.26600
C           8.85700         7.10300        29.68700
O           8.68900         6.04800        28.72800
H           9.09500         6.30900        27.85300
C           8.21100         6.67300        30.99400
O           8.70600         5.50300        31.66200
H           8.17300         5.24200        32.46700
C           8.02400        10.84800        30.05000
O           8.73400        11.56600        29.03000
H           8.60300        12.55100        29.13700
C           8.68500         9.50000        30.28800
O           8.00600         9.04900        31.46900
C           8.41700         7.78500        32.00900
O           7.56900         7.63300        33.15700
C           8.02300         8.03400        34.45800
C           7.62600         9.41700        34.94900
O           8.00500        10.43400        34.01000

