# freq=raman b3lyp/6-31+g(2d,p) geom=connectivity
500 9000.com
500 9000.com
C           9.57800         7.87900         2.60000
0 1
O           9.40100         8.82500        23.37000
H           9.21500         8.56100        22.42300
C           9.83000         7.82200        25.53100
O           9.50700         9.04600        26.20700
H           9.66100         9.84100        25.62100
C           8.69700         3.96100        24.05300
O           8.71800         2.95000        25.07100
H           8.58800         2.00000        24.78800
C           8.75900         5.36600        24.63100
O           9.81800         5.40700        25.59900
C           9.62500         6.58700        26.39300
O          10.53800         6.50000        27.49700
C           9.78400         6.55300        28.71700
C           9.36100         5.13500        29.06500
O           8.52000         4.36400        28.19400
H           8.92500         4.05900        27.33200
C           8.78300         5.04000        30.46800
O           8.74900         3.69600        30.97000
H           7.92800         3.33500        30.52900
C          11.01300         8.51600        29.33900
O           9.90100         9.39300        29.10700
H           9.57200         9.23800        28.17600
C          10.58500         7.15400        29.86000
O           9.87400         7.06500        31.10300
C           9.66600         5.70500        31.51100
O           8.96300         6.01700        32.72300
C           9.78300         5.97500        33.90000
C           9.54900         7.32900        34.55000
O          10.10300         8.32500        33.67900

