# freq=raman b3lyp/6-31+g(d,p) geom=connectivity

350 6000.com

0 1
 O                  7.62800000    7.47700000   12.23200000
 C                  8.25600000    7.84500000   13.46900000
 C                  7.79200000    9.21500000   13.93400000
 O                  7.98100000   10.24300000   12.95100000
 H                  7.92800000    9.78500000   12.06400000
 C                  8.29600000    9.55100000   15.32800000
 O                  7.90300000   10.83200000   15.84200000
 H                  8.44200000   11.04700000   16.65700000
 C                  8.66800000    5.35100000   14.30600000
 O                  8.18900000    4.54700000   13.21800000
 H                  7.93100000    3.63200000   13.52800000
 C                  8.04900000    6.72800000   14.47900000
 O                  8.52200000    7.12900000   15.77300000
 C                  8.06500000    8.39000000   16.28300000
 O                  8.81400000    8.65400000   17.47800000
 C                  8.26500000    8.31000000   18.75900000
 C                  8.61300000    6.91400000   19.24700000
 O                  8.30800000    5.99300000   18.19000000
 H                  8.43500000    6.41700000   17.29300000
 C                  8.04200000    6.56900000   20.61300000
 O                  8.72200000    5.40700000   21.11100000
 H                  8.43700000    5.32300000   22.06500000
 C                  8.35100000   10.77200000   19.56300000
 O                  9.09800000   11.52300000   18.59500000
 H                  9.02300000   12.49300000   18.82800000
 C                  8.70300000    9.31400000   19.81200000
 O                  7.88100000    8.90800000   20.91600000
 C                  8.23800000    7.70200000   21.60700000
 O                  7.48700000    7.57000000   22.82300000
 H                  8.09087667    7.48946253   23.56492094
 H                  9.27678392    7.75245954   21.85855875
 H                  6.99766863    6.35622133   20.51814633
 H                  9.67675600    6.89417948   19.36071159
 H                  7.19956834    8.36766071   18.67880882
 H                  9.74067626    9.20003389   20.04681845
 H                  8.43636011   11.28441714   20.49843697
 H                  7.32308701   10.80546361   19.26774574
 H                  7.02382389    8.32379268   16.52063185
 H                  9.35918746    9.61547144   15.22613809
 H                  6.73074897    9.12731281   14.03867671
 H                  8.30184099    7.28202812   11.57661898
 H                  9.30764549    7.91384233   13.28406085
 H                  6.99203067    6.58263568   14.56014835
 H                  8.50876442    4.80431934   15.21191627
 H                  9.72252894    5.47978711   14.17839670

 1 2 1.0 41 1.0
 2 3 1.0 12 1.0 42 1.0
 3 4 1.0 6 1.0 40 1.0
 4 5 1.0
 5
 6 7 1.0 14 1.0 39 1.0
 7 8 1.0
 8
 9 10 1.0 12 1.0 44 1.0 45 1.0
 10 11 1.0
 11
 12 13 1.0 43 1.0
 13 14 1.0
 14 15 1.0 38 1.0
 15 16 1.0
 16 17 1.0 26 1.0 34 1.0
 17 18 1.0 20 1.0 33 1.0
 18 19 1.0
 19
 20 21 1.0 28 1.0 32 1.0
 21 22 1.0
 22
 23 24 1.0 26 1.0 36 1.0 37 1.0
 24 25 1.0
 25
 26 27 1.0 35 1.0
 27 28 1.0
 28 29 1.0 31 1.0
 29 30 1.0
 30
 31
 32
 33
 34
 35
 36
 37
 38
 39
 40
 41
 42
 43
 44
 45

