# freq=raman b3lyp/6-31+g(2d,p) geom=connectivity

500 8990/8990.com

0 1
 O                  8.50400000    7.31300000   12.17800000
 C                  9.28100000    7.53500000   13.36400000
 C                  9.02300000    8.90900000   13.96000000
 O                  8.93100000    9.94300000   12.96800000
 H                  8.72200000    9.56500000   12.06600000
 C                  9.82700000    9.13800000   15.22900000
 O                  9.58500000   10.40600000   15.85500000
 H                  9.47700000   11.14100000   15.18500000
 C                  9.19100000    5.16900000   13.85900000
 O                  8.92600000    4.05000000   14.71700000
 H                  8.96000000    3.21500000   14.16900000
 C                  8.93900000    6.54100000   14.46200000
 O                  9.85800000    6.71000000   15.55100000
 C                  9.57700000    7.97200000   16.17200000
 O                 10.40700000    7.95500000   17.34200000
 C                  9.81500000    7.46200000   18.55300000
 C                  9.95900000    5.95600000   18.70700000
 O                  9.22500000    5.32200000   17.65000000
 H                  9.46600000    5.68100000   16.74800000
 C                  9.30400000    5.52100000   20.00700000
 O                  9.35700000    4.08700000   20.03500000
 H                  8.85000000    3.53700000   19.37200000
 C                  9.78000000    9.48700000   20.05700000
 O                 10.65900000   10.54800000   20.45900000
 H                 10.21600000   11.43200000   20.30800000
 C                 10.39700000    8.12400000   19.79100000
 O                 10.32300000    7.50600000   21.08400000
 C                 10.12100000    6.08700000   21.15700000
 O                  9.40300000    5.70000000   22.33800000
 H                 10.02662793    5.47272622   23.03156675
 H                 11.07728488    5.60705424   21.16544432
 H                  8.29174763    5.86443811   20.05491047
 H                 10.98874104    5.66624120   18.68305775
 H                  8.76990562    7.68925185   18.52083882
 H                 11.43505217    8.28465416   19.58719145
 H                  9.04231345    9.36706064   20.82272391
 H                  9.28024386    9.79854839   19.16364598
 H                  9.09171407    7.17333941   11.43188533
 H                 10.21635705    5.12137033   13.55688357
 H                  8.57958832    5.07150452   12.98631999
 H                  7.92413078    6.64647330   14.78420466
 H                 10.31982480    7.44712517   13.12312440
 H                  8.01894559    8.83779435   14.32291113
 H                 10.86182251    9.11207028   14.95813099
 H                  8.55113882    7.98784078   16.47573988

 1 2 1.0 38 1.0
 2 3 1.0 12 1.0 42 1.0
 3 4 1.0 6 1.0 43 1.0
 4 5 1.0
 5
 6 7 1.0 14 1.0 44 1.0
 7 8 1.0
 8
 9 10 1.0 12 1.0 39 1.0 40 1.0
 10 11 1.0
 11
 12 13 1.0 41 1.0
 13 14 1.0
 14 15 1.0 45 1.0
 15 16 1.0
 16 17 1.0 26 1.0 34 1.0
 17 18 1.0 20 1.0 33 1.0
 18 19 1.0
 19
 20 21 1.0 28 1.0 32 1.0
 21 22 1.0
 22
 23 24 1.0 26 1.0 36 1.0 37 1.0
 24 25 1.0
 25
 26 27 1.0 35 1.0
 27 28 1.0
 28 29 1.0 31 1.0
 29 30 1.0
 30
 31
 32
 33
 34
 35
 36
 37
 38
 39
 40
 41
 42
 43
 44
 45

