# freq=raman b3lyp/6-31+g(2d,p) geom=connectivity

483 10000/10000.com

0 1
O           7.87200         7.61900        12.18500
C           8.40500         8.07200        13.43900
C           7.89200         9.42300        13.91200
O           8.29400        10.31400        12.86100
H           8.05400         9.84400        12.01200
C           8.37700         9.78100        15.30800
O           7.88700        10.92700        16.01900
H           8.28200        10.93700        16.93700
C           8.72400         5.69100        14.40400
O           8.34200         4.96700        13.22600
H           8.51800         4.00000        13.41000
C           8.01900         7.03500        14.48100
O           8.57000         7.40500        15.75300
C           8.07400         8.64700        16.27400
O           8.80300         8.77600        17.50400
C           8.10000         8.36700        18.68600
C           8.74400         7.05900        19.11800
O           8.52300         6.00800        18.16600
H           8.89900         6.37100        17.31400
C           8.28100         6.65700        20.50900
O           8.91400         5.45000        20.96000
H           8.43900         5.10200        21.76800
C           7.64600        10.72800        19.52100
O           8.40500        11.47100        18.55600
H           8.06400        12.40800        18.48300
C           8.34300         9.40100        19.77300
O           7.87100         8.97900        21.06100
C           8.48500         7.76800        21.52600
O           7.57700         7.55500        22.61600

