# freq=raman b3lyp/6-31+g(2d,p) geom=connectivity

473 5296/5296.com

0 1
 O                  7.52100000    7.45400000   12.29300000
 C                  8.14900000    7.82800000   13.52800000
 C                  7.49200000    9.10500000   14.02700000
 O                  7.31300000   10.15200000   13.06200000
 H                  7.11000000    9.67700000   12.20600000
 C                  8.10900000    9.49500000   15.36000000
 O                  7.46100000   10.65200000   15.90700000
 H                  7.96400000   10.91800000   16.72900000
 C                  8.55200000    5.36700000   14.15900000
 O                  8.10400000    4.62100000   13.01800000
 H                  7.87900000    3.69200000   13.31000000
 C                  8.04400000    6.73600000   14.58000000
 O                  8.71500000    7.21000000   15.75700000
 C                  8.12700000    8.36400000   16.37400000
 O                  8.84300000    8.66100000   17.58200000
 C                  8.28000000    8.24800000   18.83500000
 C                  8.78200000    6.92900000   19.39900000
 O                  8.81600000    5.86400000   18.43800000
 H                  9.38000000    6.12700000   17.65500000
 C                  8.10800000    6.64000000   20.73100000
 O                  8.82800000    5.61000000   21.42400000
 H                  8.23000000    5.33500000   22.17700000
 C                  7.80300000   10.71400000   19.49100000
 O                  8.34700000   11.45100000   18.38600000
 H                  8.28400000   12.44400000   18.48000000
 C                  8.40500000    9.36800000   19.85600000
 O                  7.76400000    9.03900000   21.09700000
 C                  8.23500000    7.81700000   21.68400000
 O                  7.34200000    7.59200000   22.78400000
 H                  7.85117399    7.42890875   23.58133499
 H                  7.87189232   11.33946752   20.35641564
 H                  6.76466626   10.55446462   19.28774767
 H                  9.44655487    9.51620578   20.05118837
 H                  7.23260120    8.11589569   18.66063197
 H                  9.80854842    7.10515267   19.64408893
 H                  7.08291268    6.36551479   20.59405531
 H                  9.24251354    7.92306615   22.02833479
 H                  8.19480125    7.25580861   11.63854446
 H                  8.39968819    4.72750568   15.00324412
 H                  9.61018280    5.47267644   14.04075598
 H                  7.00781060    6.62771941   14.82389925
 H                  9.18390227    8.02492434   13.34065512
 H                  6.49359530    8.81002156   14.27413513
 H                  9.12710143    9.76326622   15.16920506
 H                  7.11563308    8.12922505   16.63268452

 1 2 1.0 38 1.0
 2 3 1.0 12 1.0 42 1.0
 3 4 1.0 6 1.0 43 1.0
 4 5 1.0
 5
 6 7 1.0 14 1.0 44 1.0
 7 8 1.0
 8
 9 10 1.0 12 1.0 39 1.0 40 1.0
 10 11 1.0
 11
 12 13 1.0 41 1.0
 13 14 1.0
 14 15 1.0 45 1.0
 15 16 1.0
 16 17 1.0 26 1.0 34 1.0
 17 18 1.0 20 1.0 35 1.0
 18 19 1.0
 19
 20 21 1.0 28 1.0 36 1.0
 21 22 1.0
 22
 23 24 1.0 26 1.0 31 1.0 32 1.0
 24 25 1.0
 25
 26 27 1.0 33 1.0
 27 28 1.0
 28 29 1.0 37 1.0
 29 30 1.0
 30
 31
 32
 33
 34
 35
 36
 37
 38
 39
 40
 41
 42
 43
 44
 45

