# freq=raman b3lyp/6-31+g(2d,p) geom=connectivity

400 8793/8793.com

0 1
 O                  9.61600000    7.66500000   11.89700000
 C                 10.35600000    7.78000000   13.12100000
 C                 10.08900000    9.14300000   13.73800000
 O                 10.54400000   10.15400000   12.82700000
 H                 10.59500000    9.61800000   11.98400000
 C                 10.70100000    9.38300000   15.10800000
 O                 10.12300000   10.55000000   15.71100000
 H                 10.66800000   10.75300000   16.52400000
 C                 10.30600000    5.30900000   13.80500000
 O                  9.71200000    4.67300000   12.66400000
 H                  9.69900000    3.70300000   12.90600000
 C                  9.83900000    6.72700000   14.08800000
 O                 10.43900000    6.90900000   15.37900000
 C                 10.24200000    8.20800000   15.95600000
 O                 11.14100000    8.00000000   17.05600000
 C                 10.48100000    7.99400000   18.33100000
 C                 10.47100000    6.61400000   18.96800000
 O                 10.16000000    5.73800000   17.87500000
 H                 10.47500000    6.17500000   17.03200000
 C                  9.68900000    6.56800000   20.27000000
 O                  9.44700000    5.31200000   20.92100000
 H                  9.00900000    5.43200000   21.81300000
 C                 11.06600000   10.30600000   19.04100000
 O                 11.63600000   10.90500000   17.86800000
 H                 11.64900000   11.89900000   17.97100000
 C                 11.06400000    8.84200000   19.45000000
 O                 10.40900000    8.74200000   20.72200000
 C                 10.43200000    7.42200000   21.28500000
 O                  9.75900000    7.45300000   22.55200000
 H                 10.40830390    7.47029586   23.25889836
 H                 10.22642850    7.59569173   11.15931890
 H                 10.09622666    4.71069442   14.66693131
 H                 11.36604272    5.32968416   13.66084173
 H                  8.77213755    6.76670510   14.15961017
 H                 11.40245563    7.64579379   12.94262031
 H                  9.02886220    9.24900662   13.83684549
 H                 11.76821462    9.44503790   15.06212780
 H                  9.23577157    8.33509784   16.29695524
 H                 10.03533318   10.59314550   19.02783273
 H                 11.51217854   10.82464497   19.86369806
 H                 12.08160350    8.54057284   19.58610575
 H                 11.43923751    7.07982338   21.40027250
 H                  8.73868232    7.02569690   20.09025058
 H                 11.48478701    6.39978538   19.23492319
 H                  9.46673799    8.29852561   18.17790939

 1 2 1.0 31 1.0
 2 3 1.0 12 1.0 35 1.0
 3 4 1.0 6 1.0 36 1.0
 4 5 1.0
 5
 6 7 1.0 14 1.0 37 1.0
 7 8 1.0
 8
 9 10 1.0 12 1.0 32 1.0 33 1.0
 10 11 1.0
 11
 12 13 1.0 34 1.0
 13 14 1.0
 14 15 1.0 38 1.0
 15 16 1.0
 16 17 1.0 26 1.0 45 1.0
 17 18 1.0 20 1.0 44 1.0
 18 19 1.0
 19
 20 21 1.0 28 1.0 43 1.0
 21 22 1.0
 22
 23 24 1.0 26 1.0 39 1.0 40 1.0
 24 25 1.0
 25
 26 27 1.0 41 1.0
 27 28 1.0
 28 29 1.0 42 1.0
 29 30 1.0
 30
 31
 32
 33
 34
 35
 36
 37
 38
 39
 40
 41
 42
 43
 44
 45

