# freq=raman b3lyp/6-31+g(2d,p) geom=connectivity

280 6180/6180.com

0 1
O           7.70000         7.33900        12.12100
C           8.28200         7.81600        13.34400
C           7.51400         9.01600        13.87300
O           7.46000        10.01100        12.84000
H           7.52900         9.43600        12.02500
C           7.99000         9.44200        15.25200
O           7.26700        10.55700        15.79200
H           7.72400        10.85200        16.63100
C           9.03200         5.43700        13.96700
O           8.37000         4.76500        12.88600
H           8.41600         3.77700        13.03000
C           8.30400         6.70600        14.38200
O           8.79000         7.18000        15.64600
C           8.02200         8.25600        16.20300
O           8.83500         8.60100        17.33400
C           8.34000         8.24000        18.63200
C           8.94500         6.92600        19.09800
O           8.66100         5.86300        18.17700
H           9.32400         6.01200        17.44400
C           8.36000         6.51800        20.44000
O           8.87500         5.33100        21.05900
H           8.49300         5.26600        21.98100
C           8.16100        10.63200        19.47700
O           8.43600        11.38200        18.28500
H           8.18900        12.34900        18.33000
C           8.70000         9.23200        19.72600
O           8.09900         8.92700        20.99300
C           8.56300         7.64400        21.44000
O           7.72200         7.43600        22.58400

