# freq=raman b3lyp/6-31+g(2d,p) geom=connectivity

500 8861/8861.com

0 1
O           8.98500         7.03800        11.95500
C           9.54200         7.10900        13.27500
C           9.39800         8.53600        13.77900
O          10.33100         9.45300        13.19000
H          10.55300         9.15700        12.26000
C           9.66300         8.88700        15.23400
O           8.90900        10.04700        15.61500
H           9.20200        10.95100        15.30400
C           9.14000         4.80900        14.08400
O           8.63500         3.79100        14.96000
H           8.70500         2.89800        14.51600
C           8.79800         6.27300        14.30400
O           9.34600         6.46800        15.61600
C           9.05700         7.79000        16.09400
O           9.79800         7.53800        17.29700
C           9.12800         7.35700        18.55300
C           9.12600         5.87900        18.90600
O           8.77200         4.93300        17.88700
H           9.09700         5.38100        17.05500
C           8.48100         5.51700        20.23400
O           8.29200         4.12300        20.52000
H           8.24700         3.77400        19.58400
C           9.70300         9.51200        19.78600
O          10.07400        10.24600        20.96200
H          10.13600        11.20600        20.68600
C           9.74900         7.99300        19.78600
O           9.18900         7.59900        21.04800
C           9.22900         6.20100        21.36600
O           8.64300         6.20500        22.67600

