# freq=raman b3lyp/6-31+g(2d,p) geom=connectivity

500 8861/8861.com

0 1
 O                  8.98500000    7.03800000   11.95500000
 C                  9.54200000    7.10900000   13.27500000
 C                  9.39800000    8.53600000   13.77900000
 O                 10.33100000    9.45300000   13.19000000
 H                 10.55300000    9.15700000   12.26000000
 C                  9.66300000    8.88700000   15.23400000
 O                  8.90900000   10.04700000   15.61500000
 H                  9.20200000   10.95100000   15.30400000
 C                  9.14000000    4.80900000   14.08400000
 O                  8.63500000    3.79100000   14.96000000
 H                  8.70500000    2.89800000   14.51600000
 C                  8.79800000    6.27300000   14.30400000
 O                  9.34600000    6.46800000   15.61600000
 C                  9.05700000    7.79000000   16.09400000
 O                  9.79800000    7.53800000   17.29700000
 C                  9.12800000    7.35700000   18.55300000
 C                  9.12600000    5.87900000   18.90600000
 O                  8.77200000    4.93300000   17.88700000
 H                  9.09700000    5.38100000   17.05500000
 C                  8.48100000    5.51700000   20.23400000
 O                  8.29200000    4.12300000   20.52000000
 H                  8.24700000    3.77400000   19.58400000
 C                  9.70300000    9.51200000   19.78600000
 O                 10.07400000   10.24600000   20.96200000
 H                 10.13600000   11.20600000   20.68600000
 C                  9.74900000    7.99300000   19.78600000
 O                  9.18900000    7.59900000   21.04800000
 C                  9.22900000    6.20100000   21.36600000
 O                  8.64300000    6.20500000   22.67600000
 H                  9.33853493    6.20702041   23.33768503
 H                 10.24172638    5.85828477   21.40879661
 H                  7.50258556    5.94973302   20.21536363
 H                 10.16298431    5.67570616   19.07403321
 H                  8.11703342    7.69469783   18.45915575
 H                 10.78032622    7.70812404   19.79657858
 H                  8.70161032    9.79706308   19.53930635
 H                 10.33771642    9.84660941   18.99222950
 H                  9.69482184    7.00328503   11.30959483
 H                 10.20714175    4.73241788   14.09960948
 H                  8.81614983    4.55836937   13.09546302
 H                  7.74217974    6.44499355   14.28029762
 H                 10.57494402    6.83067817   13.25346859
 H                  8.40980947    8.86686814   13.53629494
 H                 10.70748543    9.01105592   15.43036781
 H                  8.01369805    7.93392795   16.28295973

 1 2 1.0 38 1.0
 2 3 1.0 12 1.0 42 1.0
 3 4 1.0 6 1.0 43 1.0
 4 5 1.0
 5
 6 7 1.0 14 1.0 44 1.0
 7 8 1.0
 8
 9 10 1.0 12 1.0 39 1.0 40 1.0
 10 11 1.0
 11
 12 13 1.0 41 1.0
 13 14 1.0
 14 15 1.0 45 1.0
 15 16 1.0
 16 17 1.0 26 1.0 34 1.0
 17 18 1.0 20 1.0 33 1.0
 18 19 1.0
 19
 20 21 1.0 28 1.0 32 1.0
 21 22 1.0
 22
 23 24 1.0 26 1.0 36 1.0 37 1.0
 24 25 1.0
 25
 26 27 1.0 35 1.0
 27 28 1.0
 28 29 1.0 31 1.0
 29 30 1.0
 30
 31
 32
 33
 34
 35
 36
 37
 38
 39
 40
 41
 42
 43
 44
 45

