%chk=Furfural Raman.chk
# opt freq=raman b3lyp/6-31+g(2df,p) scrf=(smd,solvent=water)
geom=connectivity

Furfural Raman

0 1
 C              
 O                  1            B1
 C                  1            B2    2            A1
 C                  1            B3    2            A2    3            D1    0
 C                  2            B4    1            A3    4            D2    0
 C                  3            B5    1            A4    4            D3    0
 O                  4            B6    1            A5    2            D4    0
 H                  3            B7    1            A6    4            D5    0
 H                  4            B8    1            A7    2            D6    0
 H                  5            B9    2            A8    1            D7    0
 H                  6           B10    3            A9    1            D8    0

   B1             0.96482067
   B2             1.06772727
   B3             0.93865417
   B4             0.99282116
   B5             0.97160000
   B6             1.02903848
   B7             1.07000000
   B8             1.07000000
   B9             1.07000000
   B10            1.07000000
   A1           105.30287609
   A2           118.63964260
   A3           113.48719568
   A4           106.69873025
   A5           124.07619776
   A6           126.65063487
   A7           117.96190112
   A8           127.85628411
   A9           124.88811690
   D1           180.00000000
   D2           180.00000000
   D3           180.00000000
   D4           180.00000000
   D5             0.00000000
   D6             0.00000000
   D7           180.00000000
   D8           180.00000000

 1 2 1.0 3 2.0 4 1.0
 2 5 1.0
 3 6 1.0 8 1.0
 4 7 2.0 9 1.0
 5 6 2.0 10 1.0
 6 11 1.0
 7
 8
 9
 10
 11

