# freq=raman b3lyp/6-31+g(2d,p) geom=connectivity

400 8312/8312.com

0 1
 O                  9.35500000    7.79600000   11.92700000
 C                 10.08300000    7.88300000   13.16100000
 C                  9.91400000    9.28400000   13.72500000
 O                 10.47700000   10.20100000   12.77600000
 H                 10.05500000   10.07200000   11.87800000
 C                 10.66400000    9.42400000   15.04000000
 O                 10.22600000   10.68200000   15.57500000
 H                 10.47400000   10.80400000   16.53600000
 C                  9.69000000    5.43400000   13.98800000
 O                  9.34600000    4.85600000   12.72100000
 H                  9.44000000    3.87000000   12.86100000
 C                  9.52000000    6.93000000   14.20200000
 O                 10.23400000    7.02500000   15.44300000
 C                 10.19700000    8.34600000   16.00400000
 O                 11.03500000    8.26900000   17.16600000
 C                 10.41500000    8.26200000   18.46000000
 C                 10.70000000    6.89600000   19.06300000
 O                 10.39800000    5.89300000   18.08300000
 H                 10.88700000    6.03800000   17.22300000
 C                 10.32400000    6.50900000   20.48400000
 O                 10.48500000    5.16700000   20.96800000
 H                  9.94500000    5.15900000   21.81000000
 C                 10.56400000   10.62700000   19.29000000
 O                 10.95600000   11.19000000   18.02900000
 H                 11.06000000   12.17900000   18.13200000
 C                 11.11800000    9.21700000   19.41100000
 O                 10.74700000    9.02200000   20.78300000
 C                 10.90700000    7.67800000   21.26000000
 O                 10.05500000    7.76000000   22.41200000
 H                 10.59337935    7.81643334   23.20481962
 H                  9.97274799    7.74432039   11.19398115
 H                  9.10428458    4.93769063   14.73332842
 H                 10.71734042    5.20081209   14.17533677
 H                  8.48633197    7.15177667   14.36706217
 H                 11.11931779    7.67586357   12.99354869
 H                  8.87575151    9.49817918   13.87014600
 H                 11.72429228    9.40074851   14.89808580
 H                  9.19576943    8.56535710   16.31111532
 H                 11.91932842    7.48694785   21.54911978
 H                  9.26577592    6.66097514   20.52833221
 H                 11.76912074    6.88223347   19.10412567
 H                  9.36470696    8.45797870   18.40188909
 H                 12.18025947    9.19987413   19.28367554
 H                 10.94906545   11.23073974   20.08506159
 H                  9.49613074   10.59682237   19.35037016

 1 2 1.0 31 1.0
 2 3 1.0 12 1.0 35 1.0
 3 4 1.0 6 1.0 36 1.0
 4 5 1.0
 5
 6 7 1.0 14 1.0 37 1.0
 7 8 1.0
 8
 9 10 1.0 12 1.0 32 1.0 33 1.0
 10 11 1.0
 11
 12 13 1.0 34 1.0
 13 14 1.0
 14 15 1.0 38 1.0
 15 16 1.0
 16 17 1.0 26 1.0 42 1.0
 17 18 1.0 20 1.0 41 1.0
 18 19 1.0
 19
 20 21 1.0 28 1.0 40 1.0
 21 22 1.0
 22
 23 24 1.0 26 1.0 44 1.0 45 1.0
 24 25 1.0
 25
 26 27 1.0 43 1.0
 27 28 1.0
 28 29 1.0 39 1.0
 29 30 1.0
 30
 31
 32
 33
 34
 35
 36
 37
 38
 39
 40
 41
 42
 43
 44
 45

