# freq=raman b3lyp/6-31+g(2d,p) geom=connectivity

290 9606/9606.com

0 1
 O                  7.46400000    7.33000000   12.18400000
 C                  7.98500000    7.70300000   13.46800000
 C                  7.34500000    8.99500000   13.95000000
 O                  7.53800000   10.02800000   12.97200000
 H                  7.49500000    9.65400000   12.04600000
 C                  7.90900000    9.54400000   15.25100000
 O                  7.45900000   10.77100000   15.84400000
 H                  7.94500000   10.88300000   16.71100000
 C                  8.01000000    5.29400000   14.29300000
 O                  7.48800000    4.62600000   13.13500000
 H                  7.60800000    3.64000000   13.02300000
 C                  7.74900000    6.75300000   14.63100000
 O                  8.27400000    7.20700000   15.88700000
 C                  7.75000000    8.47200000   16.31700000
 O                  8.68200000    8.77100000   17.36700000
 C                  8.30100000    8.45700000   18.71500000
 C                  8.84600000    7.11600000   19.17800000
 O                  8.50200000    6.02200000   18.31500000
 H                  8.39700000    6.39400000   17.39300000
 C                  8.55600000    6.79400000   20.63500000
 O                  9.50700000    5.84700000   21.14500000
 H                  9.05400000    5.62600000   22.00800000
 C                  8.26000000   10.94700000   19.43300000
 O                  8.41200000   11.61000000   18.16900000
 H                  8.32700000   12.58100000   18.39000000
 C                  8.74300000    9.53000000   19.69600000
 O                  8.15400000    9.25100000   20.97500000
 C                  8.72600000    8.04000000   21.49000000
 O                  8.08100000    7.72100000   22.73200000
 H                  8.19115479    7.15515134   11.58210810
 H                  7.67721951    4.72847767   15.13818734
 H                  9.07337649    5.18505121   14.24545413
 H                  6.68947642    6.79055301   14.77556676
 H                  9.03861032    7.86181793   13.37011151
 H                  6.29492372    8.83105644   14.07394477
 H                  8.96009242    9.66231078   15.08942252
 H                  6.74565976    8.39560859   16.67806099
 H                  8.73893703   11.56916437   20.15993247
 H                  7.21320208   10.95528386   19.65446215
 H                  8.74577778    7.54870671   23.40280960
 H                  9.80953863    9.52293969   19.78170590
 H                  7.23279204    8.40433272   18.74752542
 H                  9.91023817    7.20594577   19.11313961
 H                  7.56257298    6.40990618   20.73734597
 H                  9.76887326    8.19809334   21.66978280

 1 2 1.0 30 1.0
 2 3 1.0 12 1.0 34 1.0
 3 4 1.0 6 1.0 35 1.0
 4 5 1.0
 5
 6 7 1.0 14 1.0 36 1.0
 7 8 1.0
 8
 9 10 1.0 12 1.0 31 1.0 32 1.0
 10 11 1.0
 11
 12 13 1.0 33 1.0
 13 14 1.0
 14 15 1.0 37 1.0
 15 16 1.0
 16 17 1.0 26 1.0 42 1.0
 17 18 1.0 20 1.0 43 1.0
 18 19 1.0
 19
 20 21 1.0 28 1.0 44 1.0
 21 22 1.0
 22
 23 24 1.0 26 1.0 38 1.0 39 1.0
 24 25 1.0
 25
 26 27 1.0 41 1.0
 27 28 1.0
 28 29 1.0 45 1.0
 29 40 1.0
 30
 31
 32
 33
 34
 35
 36
 37
 38
 39
 40
 41
 42
 43
 44
 45

