# freq=raman b3lyp/6-31+g(2d,p) geom=connectivity

290 9606/9606.com

0 1
O           7.46400         7.33000        12.18400
C           7.98500         7.70300        13.46800
C           7.34500         8.99500        13.95000
O           7.53800        10.02800        12.97200
H           7.49500         9.65400        12.04600
C           7.90900         9.54400        15.25100
O           7.45900        10.77100        15.84400
H           7.94500        10.88300        16.71100
C           8.01000         5.29400        14.29300
O           7.48800         4.62600        13.13500
H           7.60800         3.64000        13.02300
C           7.74900         6.75300        14.63100
O           8.27400         7.20700        15.88700
C           7.75000         8.47200        16.31700
O           8.68200         8.77100        17.36700
C           8.30100         8.45700        18.71500
C           8.84600         7.11600        19.17800
O           8.50200         6.02200        18.31500
H           8.39700         6.39400        17.39300
C           8.55600         6.79400        20.63500
O           9.50700         5.84700        21.14500
H           9.05400         5.62600        22.00800
C           8.26000        10.94700        19.43300
O           8.41200        11.61000        18.16900
H           8.32700        12.58100        18.39000
C           8.74300         9.53000        19.69600
O           8.15400         9.25100        20.97500
C           8.72600         8.04000        21.49000
O           8.08100         7.72100        22.73200

