# freq=raman b3lyp/6-31+g(2d,p) geom=connectivity

450 7183/7183.com

0 1
O          10.64500         7.60100        12.00100
C          11.64600         7.47800        13.02200
C          11.73200         8.92100        13.49300
O          12.47500         9.70800        12.55200
H          12.07700         9.50000        11.65800
C          12.26500         9.08400        14.90700
O          12.32200        10.44800        15.34900
H          12.13500        11.05400        14.57600
C          10.75500         5.14900        13.88800
O           9.79600         4.57700        14.79000
H           9.49800         3.69000        14.43900
C          10.98200         6.63700        14.09900
O          11.66800         6.82700        15.34500
C          11.47700         8.16500        15.82600
O          12.08000         8.06300        17.12400
C          11.23300         8.20800        18.27300
C          10.43800         6.95300        18.59600
O           9.48500         6.71300        17.55000
H           9.93800         6.51900        16.68000
C           9.69600         7.03200        19.92000
O           9.30600         5.68600        20.23100
H           8.54300         5.49100        19.61600
C          12.77500         9.99900        19.23600
O          11.99400        11.01000        18.58400
H          12.29300        11.15500        17.64000
C          12.09300         8.65700        19.44400
O          11.15000         8.87100        20.50400
C          10.65200         7.60300        20.95500
O          10.08800         7.92100        22.23600

