# freq=raman b3lyp/6-31+g(2d,p) geom=connectivity

450 7183/7183.com

0 1
 O                 10.64500000    7.60100000   12.00100000
 C                 11.64600000    7.47800000   13.02200000
 C                 11.73200000    8.92100000   13.49300000
 O                 12.47500000    9.70800000   12.55200000
 H                 12.07700000    9.50000000   11.65800000
 C                 12.26500000    9.08400000   14.90700000
 O                 12.32200000   10.44800000   15.34900000
 H                 12.13500000   11.05400000   14.57600000
 C                 10.75500000    5.14900000   13.88800000
 O                  9.79600000    4.57700000   14.79000000
 H                  9.49800000    3.69000000   14.43900000
 C                 10.98200000    6.63700000   14.09900000
 O                 11.66800000    6.82700000   15.34500000
 C                 11.47700000    8.16500000   15.82600000
 O                 12.08000000    8.06300000   17.12400000
 C                 11.23300000    8.20800000   18.27300000
 C                 10.43800000    6.95300000   18.59600000
 O                  9.48500000    6.71300000   17.55000000
 H                  9.93800000    6.51900000   16.68000000
 C                  9.69600000    7.03200000   19.92000000
 O                  9.30600000    5.68600000   20.23100000
 H                  8.54300000    5.49100000   19.61600000
 C                 12.77500000    9.99900000   19.23600000
 O                 11.99400000   11.01000000   18.58400000
 H                 12.29300000   11.15500000   17.64000000
 C                 12.09300000    8.65700000   19.44400000
 O                 11.15000000    8.87100000   20.50400000
 C                 10.65200000    7.60300000   20.95500000
 O                 10.08800000    7.92100000   22.23600000
 H                 11.07037565    7.70393396   11.14656442
 H                 11.68784572    4.64037832   14.01450240
 H                 10.41451259    4.99473548   12.88541794
 H                 10.00768158    7.05916211   14.23084376
 H                 12.57393495    7.08121954   12.66646942
 H                 10.73286557    9.30391493   13.49555739
 H                 13.27227709    8.72310085   14.90031660
 H                 10.44148296    8.42912403   15.87931929
 H                 10.79455351    8.07758322   22.86676448
 H                 11.47186848    6.92843044   21.08793452
 H                  8.83280571    7.65714501   19.82518783
 H                 11.11429698    6.12478338   18.63574442
 H                 10.53302362    8.98992426   18.06436751
 H                 12.80249531    7.90210139   19.71166490
 H                 13.65841503    9.83577276   18.65476447
 H                 13.06959452   10.37358252   20.19401983

 1 2 1.0 30 1.0
 2 3 1.0 12 1.0 34 1.0
 3 4 1.0 6 1.0 35 1.0
 4 5 1.0
 5
 6 7 1.0 14 1.0 36 1.0
 7 8 1.0
 8
 9 10 1.0 12 1.0 31 1.0 32 1.0
 10 11 1.0
 11
 12 13 1.0 33 1.0
 13 14 1.0
 14 15 1.0 37 1.0
 15 16 1.0
 16 17 1.0 26 1.0 42 1.0
 17 18 1.0 20 1.0 41 1.0
 18 19 1.0
 19
 20 21 1.0 28 1.0 40 1.0
 21 22 1.0
 22
 23 24 1.0 26 1.0 44 1.0 45 1.0
 24 25 1.0
 25
 26 27 1.0 43 1.0
 27 28 1.0
 28 29 1.0 39 1.0
 29 38 1.0
 30
 31
 32
 33
 34
 35
 36
 37
 38
 39
 40
 41
 42
 43
 44
 45

