# freq=raman b3lyp/6-31+g(2d,p) geom=connectivity

350 9808/9808.com

0 1
 O                  7.86700000    7.67600000   12.29500000
 C                  8.42500000    8.18200000   13.51700000
 C                  7.86500000    9.51900000   13.97400000
 O                  8.21500000   10.62200000   13.12600000
 H                  8.33200000   10.26100000   12.20000000
 C                  8.16200000    9.86700000   15.42400000
 O                  7.53900000   11.06000000   15.92100000
 H                  7.75400000   11.11300000   16.89600000
 C                  8.65900000    5.76700000   14.22300000
 O                  8.20400000    4.98500000   13.10900000
 H                  8.52200000    4.03700000   13.14200000
 C                  8.07100000    7.12900000   14.55400000
 O                  8.55500000    7.48700000   15.85600000
 C                  7.93900000    8.68500000   16.35200000
 O                  8.65700000    8.85100000   17.58400000
 C                  7.84900000    8.47700000   18.71000000
 C                  8.42200000    7.19500000   19.29200000
 O                  8.00100000    6.16700000   18.38200000
 H                  8.21500000    6.54800000   17.48300000
 C                  7.96100000    6.76300000   20.67500000
 O                  8.58600000    5.55600000   21.13300000
 H                  8.15300000    5.22500000   21.97200000
 C                  7.66500000   10.89200000   19.67300000
 O                  7.95800000   11.58400000   18.45000000
 H                  8.01000000   12.55800000   18.67200000
 C                  8.20600000    9.47700000   19.79700000
 O                  7.83800000    9.16200000   21.14800000
 C                  8.34100000    7.90000000   21.61000000
 O                  7.56400000    7.71200000   22.80100000
 H                  8.15146997    7.59361586   23.55097615
 H                  8.57653107    7.42860548   11.69753735
 H                  8.53457536    5.15947070   15.09496712
 H                  9.71027327    5.91214566   14.08640844
 H                  7.00568834    7.03931041   14.59834909
 H                  9.48875066    8.25099188   13.42440060
 H                  6.80119714    9.42492564   13.90786765
 H                  9.21347903   10.06232897   15.45774065
 H                  6.89625826    8.53059496   16.53570831
 H                  8.06070080   11.46926671   20.48237261
 H                  6.60143370   10.84999935   19.78237402
 H                  9.27289266    9.55735538   19.78346982
 H                  6.80121560    8.42696132   18.49894554
 H                  9.49030279    7.25458473   19.28312298
 H                  6.89824295    6.63871450   20.67574655
 H                  9.39091562    7.92989606   21.81416520

 1 2 1.0 31 1.0
 2 3 1.0 12 1.0 35 1.0
 3 4 1.0 6 1.0 36 1.0
 4 5 1.0
 5
 6 7 1.0 14 1.0 37 1.0
 7 8 1.0
 8
 9 10 1.0 12 1.0 32 1.0 33 1.0
 10 11 1.0
 11
 12 13 1.0 34 1.0
 13 14 1.0
 14 15 1.0 38 1.0
 15 16 1.0
 16 17 1.0 26 1.0 42 1.0
 17 18 1.0 20 1.0 43 1.0
 18 19 1.0
 19
 20 21 1.0 28 1.0 44 1.0
 21 22 1.0
 22
 23 24 1.0 26 1.0 39 1.0 40 1.0
 24 25 1.0
 25
 26 27 1.0 41 1.0
 27 28 1.0
 28 29 1.0 45 1.0
 29 30 1.0
 30
 31
 32
 33
 34
 35
 36
 37
 38
 39
 40
 41
 42
 43
 44
 45

