# freq=raman b3lyp/6-31+g(2d,p) geom=connectivity
550 7000.com
550 7000.com
C           9.89200         7.69100         1.83800
0 1
O          11.55900         8.73900        22.20300
H          11.26800         8.60400        21.25600
C          11.43200         7.94500        24.45000
O          11.77400         9.29400        24.79900
H          12.44500         9.71900        24.19200
C           9.51800         4.46900        23.36700
O           8.62200         3.75300        24.22800
H           8.60000         2.82000        23.86700
C           9.60100         5.95900        23.65600
O          10.15900         6.06400        24.97400
C          10.47800         7.36800        25.48300
O          11.17300         7.04400        26.69600
C          10.46200         7.08000        27.94200
C          10.01700         5.66200        28.25900
O           8.69700         5.42500        27.74800
H           8.73900         5.72700        26.79500
C          10.16400         5.34300        29.73800
O          10.83000         4.09400        29.97100
H          10.35800         3.30900        29.56900
C          11.61000         9.12400        28.37600
O          12.14200        10.12500        29.25700
H          13.08600         9.92200        29.51600
C          11.28400         7.78200        29.01000
O          10.68400         7.71300        30.31100
C          10.80800         6.33500        30.69300
O           9.92800         6.35700        31.82700
C          10.58000         6.41000        33.10400
C          10.73700         7.80100        33.69700
O          11.69100         8.48600        32.87400

