# freq=raman b3lyp/6-31+g(d,p) geom=connectivity

290 10000.com

0 1
O           7.60700         7.54400        12.32100
C           8.25400         7.90000        13.55100
C           7.65800         9.20300        14.05700
O           8.08100        10.19800        13.11400
H           7.62300        10.07100        12.23400
C           8.10200         9.72600        15.41400
O           7.48800        10.89200        15.98200
H           8.03800        11.14200        16.78000
C           8.65800         5.55700        14.33600
O           8.04100         4.74300        13.32800
H           8.37100         3.82600        13.55200
C           7.96200         6.87600        14.63500
O           8.57400         7.33200        15.85000
C           8.00000         8.54300        16.36400
O           8.77900         8.73400        17.55400
C           8.10500         8.39300        18.77400
C           8.57500         7.05800        19.32900
O           8.06400         6.07000        18.42100
H           8.40500         6.32300        17.51600
C           8.25900         6.65900        20.76100
O           9.11200         5.61200        21.24600
H           8.69900         5.21500        22.06600
C           8.06800        10.90200        19.39000
O           8.70100        11.60700        18.31200
H           8.69600        12.59900        18.43500
C           8.38900         9.47500        19.80200
O           7.84300         9.12100        21.08100
C           8.42000         7.91500        21.60200
O           7.75000         7.64500        22.84200

