# freq=raman b3lyp/6-31+g(d,p) geom=connectivity

290 5000.com

0 1
O           7.46200         7.76300        12.15700
C           8.01400         8.05000        13.45000
C           7.59000         9.41300        13.97200
O           7.88700        10.40900        12.98300
H           7.74100        10.05200        12.06100
C           8.22300         9.72300        15.31900
O           7.60600        10.90600        15.84600
H           7.62600        10.82900        16.84300
C           7.96900         5.53000        14.23700
O           7.87900         4.82300        12.99200
H           7.99100         3.83200        13.06500
C           7.62400         6.99200        14.47000
O           8.14900         7.33500        15.76000
C           7.86600         8.62900        16.31200
O           8.68000         8.76600        17.48600
C           8.17200         8.30300        18.74600
C           8.57600         6.91100        19.20400
O           8.19500         5.96100        18.19800
H           8.47300         6.20800        17.27000
C           8.19100         6.57500        20.63500
O           8.64900         5.32900        21.18000
H           8.16500         5.31400        22.05500
C           8.00000        10.73800        19.61000
O           8.19900        11.35700        18.33100
H           8.24900        12.33100        18.55100
C           8.50600         9.32100        19.82400
O           7.89400         8.91100        21.05500
C           8.48200         7.71800        21.59400
O           7.61100         7.56200        22.72400

