# freq=raman b3lyp/6-31+g(d,p) geom=connectivity

290 7000.com

0 1
O           7.55600         7.41100        12.34000
C           8.19900         7.87300        13.53700
C           7.65100         9.23600        13.92700
O           7.82500        10.29700        12.97600
H           7.57000         9.90000        12.09400
C           8.09200         9.63400        15.32600
O           7.32900        10.75300        15.80000
H           7.61300        10.97000        16.73400
C           8.30600         5.39300        14.40400
O           7.63600         4.58800        13.42400
H           7.97300         3.64900        13.49300
C           7.90000         6.84300        14.61400
O           8.56900         7.24400        15.81900
C           8.02600         8.47800        16.31000
O           8.73700         8.78200        17.51900
C           8.25700         8.38400        18.81100
C           8.77200         7.04500        19.31500
O           8.66800         5.94900        18.39400
H           8.70800         6.35100        17.47900
C           8.24200         6.63900        20.68100
O           8.84500         5.46200        21.23800
H           8.30600         5.26100        22.05600
C           8.01600        10.79800        19.56400
O           8.35500        11.46400        18.33900
H           8.02700        12.40600        18.41400
C           8.60100         9.42700        19.86200
O           8.06100         9.05300        21.13700
C           8.48100         7.78100        21.65400
O           7.63000         7.66800        22.80400

