# freq=raman b3lyp/6-31+g(d,p) geom=connectivity

290 9000.com

0 1
O           7.55400         7.65500        12.34800
C           8.06500         8.00200        13.64400
C           7.62800         9.39100        14.07700
O           7.74100        10.43800        13.10200
H           7.34700        10.07300        12.25800
C           8.24400         9.75300        15.41900
O           7.94500        10.99900        16.06500
H           8.24600        11.12500        17.01000
C           8.27300         5.54900        14.31900
O           7.77500         4.93700        13.12100
H           7.90000         3.94700        13.18700
C           7.70800         6.92100        14.65200
O           8.19900         7.33100        15.93600
C           7.89400         8.65200        16.40600
O           8.79400         8.77000        17.51700
C           8.35400         8.39400        18.83000
C           8.70800         6.97300        19.23900
O           8.30700         5.97400        18.29100
H           8.50800         6.37000        17.39500
C           8.25500         6.60800        20.64300
O           8.74200         5.34300        21.11400
H           8.29000         5.21600        21.99600
C           8.41100        10.77600        19.69800
O           8.83600        11.50000        18.53500
H           8.82800        12.47900        18.74000
C           8.82000         9.33100        19.93200
O           8.30800         8.94200        21.21500
C           8.74500         7.64400        21.64100
O           8.01100         7.51000        22.86700

