# freq=raman b3lyp/6-31+g(d,p) geom=connectivity

290 9000.com

0 1
 O                  7.55400000    7.65500000   12.34800000
 C                  8.06500000    8.00200000   13.64400000
 C                  7.62800000    9.39100000   14.07700000
 O                  7.74100000   10.43800000   13.10200000
 H                  7.34700000   10.07300000   12.25800000
 C                  8.24400000    9.75300000   15.41900000
 O                  7.94500000   10.99900000   16.06500000
 H                  8.24600000   11.12500000   17.01000000
 C                  8.27300000    5.54900000   14.31900000
 O                  7.77500000    4.93700000   13.12100000
 H                  7.90000000    3.94700000   13.18700000
 C                  7.70800000    6.92100000   14.65200000
 O                  8.19900000    7.33100000   15.93600000
 C                  7.89400000    8.65200000   16.40600000
 O                  8.79400000    8.77000000   17.51700000
 C                  8.35400000    8.39400000   18.83000000
 C                  8.70800000    6.97300000   19.23900000
 O                  8.30700000    5.97400000   18.29100000
 H                  8.50800000    6.37000000   17.39500000
 C                  8.25500000    6.60800000   20.64300000
 O                  8.74200000    5.34300000   21.11400000
 H                  8.29000000    5.21600000   21.99600000
 C                  8.41100000   10.77600000   19.69800000
 O                  8.83600000   11.50000000   18.53500000
 H                  8.82800000   12.47900000   18.74000000
 C                  8.82000000    9.33100000   19.93200000
 O                  8.30800000    8.94200000   21.21500000
 C                  8.74500000    7.64400000   21.64100000
 O                  8.20556100    7.35693673   22.93386513
 H                  8.28592562    7.49433581   11.74794008
 H                  9.13208470    8.01942814   13.56701627
 H                  6.57831276    9.30412473   14.26543936
 H                  6.64198457    6.84482505   14.70404299
 H                  8.06173746    4.89474358   15.13888821
 H                  9.33528398    5.64010962   14.22871276
 H                  6.87559101    8.72440901   16.72615630
 H                  9.30508548    9.72678011   15.28368511
 H                  7.28549737    8.44874115   18.81566340
 H                  9.88842139    9.28973497   19.97290136
 H                  8.74475513   11.33333867   20.54822416
 H                  7.34126200   10.79918302   19.70281292
 H                  9.77720199    6.93825289   19.26135494
 H                  7.18531344    6.59167577   20.66310420
 H                  9.81385637    7.62199330   21.68529176
 H                  8.92307514    7.21869129   23.55648995

 1 2 1.0 30 1.0
 2 3 1.0 12 1.0 31 1.0
 3 4 1.0 6 1.0 32 1.0
 4 5 1.0
 5
 6 7 1.0 14 1.0 37 1.0
 7 8 1.0
 8
 9 10 1.0 12 1.0 34 1.0 35 1.0
 10 11 1.0
 11
 12 13 1.0 33 1.0
 13 14 1.0
 14 15 1.0 36 1.0
 15 16 1.0
 16 17 1.0 26 1.0 38 1.0
 17 18 1.0 20 1.0 42 1.0
 18 19 1.0
 19
 20 21 1.0 28 1.0 43 1.0
 21 22 1.0
 22
 23 24 1.0 26 1.0 40 1.0 41 1.0
 24 25 1.0
 25
 26 27 1.0 39 1.0
 27 28 1.0
 28 29 1.0 44 1.0
 29 45 1.0
 30
 31
 32
 33
 34
 35
 36
 37
 38
 39
 40
 41
 42
 43
 44
 45

