# freq=raman b3lyp/6-31+g(2d,p) geom=connectivity

423 9052/9052.com

0 1
O           7.56200         7.60100        12.41300
C           8.16600         7.91900        13.67600
C           7.67000         9.21400        14.30000
O           7.69000        10.34700        13.42000
H           7.26300        10.11400        12.54700
C           8.38300         9.58200        15.59100
O           8.05100        10.83900        16.19800
H           8.42900        10.94600        17.11800
C           8.48000         5.41400        14.49200
O           8.16900         4.73400        13.26800
H           8.43400         3.77300        13.35000
C           7.87900         6.80000        14.66300
O           8.49100         7.14800        15.91400
C           8.09600         8.39700        16.49900
O           9.01100         8.43500        17.60400
C           8.30600         8.30600        18.84700
C           8.66400         6.93000        19.38600
O           8.35100         5.88200        18.45800
H           8.56900         6.20000        17.53500
C           8.04500         6.55000        20.72100
O           8.60100         5.35900        21.29800
H           8.13100         5.34100        22.18000
C           8.11200        10.75700        19.67600
O           8.85400        11.48700        18.68800
H           8.50700        12.42400        18.64600
C           8.56200         9.33000        19.94100
O           7.96900         8.94700        21.19000
C           8.38700         7.66900        21.69200
O           7.59800         7.56500        22.88700

