# freq=raman b3lyp/6-31+g(2d,p) geom=connectivity

423 9052/9052.com

0 1
 O                  7.56200000    7.60100000   12.41300000
 C                  8.16600000    7.91900000   13.67600000
 C                  7.67000000    9.21400000   14.30000000
 O                  7.69000000   10.34700000   13.42000000
 H                  7.26300000   10.11400000   12.54700000
 C                  8.38300000    9.58200000   15.59100000
 O                  8.05100000   10.83900000   16.19800000
 H                  8.42900000   10.94600000   17.11800000
 C                  8.48000000    5.41400000   14.49200000
 O                  8.16900000    4.73400000   13.26800000
 H                  8.43400000    3.77300000   13.35000000
 C                  7.87900000    6.80000000   14.66300000
 O                  8.49100000    7.14800000   15.91400000
 C                  8.09600000    8.39700000   16.49900000
 O                  9.01100000    8.43500000   17.60400000
 C                  8.30600000    8.30600000   18.84700000
 C                  8.66400000    6.93000000   19.38600000
 O                  8.35100000    5.88200000   18.45800000
 H                  8.56900000    6.20000000   17.53500000
 C                  8.04500000    6.55000000   20.72100000
 O                  8.60100000    5.35900000   21.29800000
 H                  8.13100000    5.34100000   22.18000000
 C                  8.11200000   10.75700000   19.67600000
 O                  8.85400000   11.48700000   18.68800000
 H                  8.50700000   12.42400000   18.64600000
 C                  8.56200000    9.33000000   19.94100000
 O                  7.96900000    8.94700000   21.19000000
 C                  8.38700000    7.66900000   21.69200000
 O                  7.59800000    7.56500000   22.88700000
 H                  8.17832533    7.49869611   23.64885715
 H                  8.24846955    7.43714625   11.76222238
 H                  8.14350063    4.80439937   15.30443784
 H                  9.54406586    5.50354128   14.56016310
 H                  6.82131691    6.71197923   14.79886322
 H                  9.22474267    7.99049806   13.53869747
 H                  6.64449532    9.04887318   14.55685267
 H                  9.43377120    9.59112969   15.38926617
 H                  7.07807553    8.37871150   16.82823443
 H                  8.16727589   11.29782349   20.59760432
 H                  7.08804986   10.72891744   19.36674691
 H                  9.62076954    9.36088084   20.09250393
 H                  7.25806785    8.31441566   18.63097365
 H                  9.72523752    6.91978918   19.52227425
 H                  6.98355254    6.45531900   20.62474616
 H                  9.43170773    7.67233541   21.92324582

 1 2 1.0 31 1.0
 2 3 1.0 12 1.0 35 1.0
 3 4 1.0 6 1.0 36 1.0
 4 5 1.0
 5
 6 7 1.0 14 1.0 37 1.0
 7 8 1.0
 8
 9 10 1.0 12 1.0 32 1.0 33 1.0
 10 11 1.0
 11
 12 13 1.0 34 1.0
 13 14 1.0
 14 15 1.0 38 1.0
 15 16 1.0
 16 17 1.0 26 1.0 42 1.0
 17 18 1.0 20 1.0 43 1.0
 18 19 1.0
 19
 20 21 1.0 28 1.0 44 1.0
 21 22 1.0
 22
 23 24 1.0 26 1.0 39 1.0 40 1.0
 24 25 1.0
 25
 26 27 1.0 41 1.0
 27 28 1.0
 28 29 1.0 45 1.0
 29 30 1.0
 30
 31
 32
 33
 34
 35
 36
 37
 38
 39
 40
 41
 42
 43
 44
 45

