# freq=raman b3lyp/6-31+g(2d,p) geom=connectivity

493 9963/9963.com

0 1
O           7.82000         7.93600        12.07600
C           8.31400         8.24100        13.38800
C           7.83500         9.55000        13.99400
O           8.22800        10.62900        13.13300
H           8.38400        10.32100        12.19500
C           8.28900         9.88600        15.40600
O           7.61800        11.07100        15.86000
H           7.78400        11.32500        16.81300
C           8.31800         5.80500        14.22700
O           8.21700         5.02600        13.02600
H           8.44800         4.06800        13.19500
C           7.84800         7.23600        14.43000
O           8.26800         7.53300        15.77000
C           7.89200         8.78100        16.37000
O           8.72200         8.77700        17.54100
C           8.15900         8.41100        18.80900
C           8.55800         6.98700        19.16100
O           7.94900         6.10500        18.20800
H           8.16600         6.55500        17.34200
C           8.13100         6.65400        20.58200
O           8.72000         5.40800        20.98000
H           8.47700         5.16700        21.92000
C           8.21500        10.84300        19.68400
O           8.64800        11.45100        18.45800
H           8.27500        12.37900        18.46300
C           8.67500         9.40300        19.83800
O           8.17100         9.03000        21.12900
C           8.60600         7.72800        21.54700
O           7.96300         7.43300        22.79500

