# freq=raman b3lyp/6-31+g(d,p) geom=connectivity

300 7000.com

0 1
 O                  7.81500000    7.73700000   22.67200000
 C                  8.47800000    7.93800000   23.92800000
 C                  8.06900000    9.27300000   24.52900000
 O                  8.38300000   10.36700000   23.65400000
 H                  7.95200000   10.01400000   22.82400000
 C                  8.63300000    9.60300000   25.90100000
 O                  8.36800000   10.90600000   26.44000000
 H                  8.58800000   10.96300000   27.41400000
 C                  8.29100000    5.56500000   24.60300000
 O                  7.60400000    4.83600000   23.57600000
 H                  7.81600000    3.86300000   23.66700000
 C                  7.98000000    6.99600000   25.01100000
 O                  8.48100000    7.20700000   26.33900000
 C                  8.16700000    8.51100000   26.85100000
 O                  8.88000000    8.61400000   28.09200000
 C                  8.26900000    8.30000000   29.35200000
 C                  8.89400000    6.99900000   29.82900000
 O                  8.74300000    5.96500000   28.84600000
 H                  8.93100000    6.28700000   27.91800000
 C                  8.33100000    6.58100000   31.17700000
 O                  8.96200000    5.43900000   31.77600000
 H                  8.50700000    5.38900000   32.66500000
 C                  7.87500000   10.72300000   29.96500000
 O                  8.51700000   11.42100000   28.88700000
 H                  8.10600000   12.32400000   29.01200000
 C                  8.49600000    9.39900000   30.37900000
 O                  7.83100000    8.92500000   31.55900000
 C                  8.44300000    7.75900000   32.13100000
 O                  7.63500000    7.51600000   33.29200000
 H                  8.20287935    7.35743102   34.04960736
 H                  9.46119195    7.94797233   32.40021107
 H                  7.29320310    6.35534999   31.04677073
 H                  9.94213859    7.17211505   29.95681498
 H                  7.21789292    8.15792316   29.21097489
 H                  9.54223034    9.52128984   30.56700872
 H                  7.86973804   11.36720046   30.81932902
 H                  6.86015325   10.53772674   29.68099313
 H                  8.46970277    7.62605110   21.97870740
 H                  8.19948020    4.97801957   25.49293152
 H                  9.32568636    5.55417984   24.33059026
 H                  6.91538652    7.09457916   25.05319339
 H                  9.54073456    7.87442166   23.82098109
 H                  7.00403268    9.25046954   24.63017803
 H                  9.69667123    9.51552912   25.82449930
 H                  7.11431088    8.59576569   27.02293135

 1 2 1.0 38 1.0
 2 3 1.0 12 1.0 42 1.0
 3 4 1.0 6 1.0 43 1.0
 4 5 1.0
 5
 6 7 1.0 14 1.0 44 1.0
 7 8 1.0
 8
 9 10 1.0 12 1.0 39 1.0 40 1.0
 10 11 1.0
 11
 12 13 1.0 41 1.0
 13 14 1.0
 14 15 1.0 45 1.0
 15 16 1.0
 16 17 1.0 26 1.0 34 1.0
 17 18 1.0 20 1.0 33 1.0
 18 19 1.0
 19
 20 21 1.0 28 1.0 32 1.0
 21 22 1.0
 22
 23 24 1.0 26 1.0 36 1.0 37 1.0
 24 25 1.0
 25
 26 27 1.0 35 1.0
 27 28 1.0
 28 29 1.0 31 1.0
 29 30 1.0
 30
 31
 32
 33
 34
 35
 36
 37
 38
 39
 40
 41
 42
 43
 44
 45

