# freq=raman b3lyp/6-31+g(d,p) geom=connectivity

500 5000.com

0 1
O           8.77300         6.75400        22.71000
C           9.55900         6.91000        23.90000
C           9.38100         8.27600        24.54200
O           9.80100         9.26800        23.59400
H           9.45800         8.95800        22.70700
C          10.27200         8.39100        25.76800
O          10.28600         9.73800        26.26300
H           9.95500        10.36400        25.55700
C           9.23300         4.47600        24.32000
O           9.14100         3.53500        25.39900
H           9.52600         2.77400        24.87700
C           8.98300         5.87700        24.85400
O           9.82000         6.03000        26.01000
C           9.72700         7.29900        26.67300
O          10.51900         7.15700        27.86200
C           9.69600         6.64900        28.92200
C           9.57100         5.17300        29.25900
O           8.64500         4.65100        28.29500
H           8.98100         4.70700        27.35400
C           9.06600         4.77700        30.63700
O           9.40200         3.39900        30.85300
H           8.80900         2.84300        30.27000
C          10.27000         8.90500        30.14600
O          11.06100         9.74200        31.00200
H          10.82300        10.61200        30.57000
C          10.32700         7.38700        30.09100
O           9.55400         7.04300        31.25000
C           9.67300         5.68400        31.69500
O           9.00300         5.40800        32.93400

