# freq=raman b3lyp/6-31+g(2d,p) geom=connectivity

280 9818/9818.com

0 1
 O                  7.81600000    7.39300000   12.28600000
 C                  8.40600000    7.80900000   13.52600000
 C                  8.04600000    9.25200000   13.83900000
 O                  8.54000000   10.18800000   12.87000000
 H                  8.19200000    9.94400000   11.96400000
 C                  8.45900000    9.66800000   15.24100000
 O                  7.87400000   10.92000000   15.62900000
 H                  8.18500000   11.18500000   16.54200000
 C                  7.98400000    5.45200000   14.38200000
 O                  7.45200000    4.69800000   13.28300000
 H                  7.45700000    3.73000000   13.53600000
 C                  7.82000000    6.94300000   14.62900000
 O                  8.42000000    7.41200000   15.84400000
 C                  8.00400000    8.70000000   16.32100000
 O                  8.74700000    8.75300000   17.54800000
 C                  8.09800000    8.37900000   18.77200000
 C                  8.71600000    7.08900000   19.28700000
 O                  8.39400000    6.12500000   18.27300000
 H                  8.29300000    6.53600000   17.36700000
 C                  8.21200000    6.61800000   20.64100000
 O                  8.92100000    5.44500000   21.06800000
 H                  8.79400000    5.22600000   22.03500000
 C                  7.99400000   10.81900000   19.57700000
 O                  8.46500000   11.47100000   18.38900000
 H                  8.49100000   12.46700000   18.47900000
 C                  8.38800000    9.38200000   19.87700000
 O                  7.95900000    8.97100000   21.18300000
 C                  8.56100000    7.73900000   21.60600000
 O                  7.74200000    7.55500000   22.77100000
 H                  8.50945493    7.18184883   11.65660708
 H                  8.30291763    7.43345818   23.54054467
 H                  8.31330040   11.41218871   20.40830885
 H                  6.92484780   10.85244488   19.55063701
 H                  9.45588622    9.40509797   19.94013085
 H                  7.04397458    8.26494568   18.62735551
 H                  9.77863068    7.20571682   19.33275170
 H                  7.15637185    6.44449816   20.61987363
 H                  9.60469935    7.82201028   21.82668296
 H                  9.04061509    5.28591972   14.35230316
 H                  7.60111893    4.97704232   15.26104339
 H                  6.77126166    7.14830731   14.68282194
 H                  9.46890536    7.69180583   13.48861382
 H                  6.97827754    9.31272484   13.80463066
 H                  9.52481389    9.75507608   15.27785788
 H                  6.94745005    8.74030373   16.48524923

 1 2 1.0 30 1.0
 2 3 1.0 12 1.0 42 1.0
 3 4 1.0 6 1.0 43 1.0
 4 5 1.0
 5
 6 7 1.0 14 1.0 44 1.0
 7 8 1.0
 8
 9 10 1.0 12 1.0 39 1.0 40 1.0
 10 11 1.0
 11
 12 13 1.0 41 1.0
 13 14 1.0
 14 15 1.0 45 1.0
 15 16 1.0
 16 17 1.0 26 1.0 35 1.0
 17 18 1.0 20 1.0 36 1.0
 18 19 1.0
 19
 20 21 1.0 28 1.0 37 1.0
 21 22 1.0
 22
 23 24 1.0 26 1.0 32 1.0 33 1.0
 24 25 1.0
 25
 26 27 1.0 34 1.0
 27 28 1.0
 28 29 1.0 38 1.0
 29 31 1.0
 30
 31
 32
 33
 34
 35
 36
 37
 38
 39
 40
 41
 42
 43
 44
 45

