# freq=raman b3lyp/6-31+g(2d,p) geom=connectivity

290 7974/7974.com

0 1
O           7.62000         7.69600        12.21400
C           8.37600         7.94000        13.40900
C           7.79600         9.21000        14.00900
O           7.60400        10.26800        13.05800
H           7.29400         9.88000        12.19100
C           8.44500         9.52100        15.34700
O           8.18400        10.82500        15.88800
H           8.31600        10.81300        16.87900
C           8.77300         5.53200        14.08100
O           8.04300         4.80000        13.08600
H           8.42300         3.87600        13.03900
C           8.17700         6.87400        14.47500
O           8.85800         7.17200        15.70300
C           8.23400         8.33300        16.27100
O           8.85000         8.56300        17.54600
C           8.20600         8.19700        18.77500
C           8.88400         6.91400        19.23000
O           8.85900         5.88400        18.23100
H           8.97800         6.26200        17.31300
C           8.27800         6.45700        20.54700
O           8.96500         5.32900        21.10700
H           8.52000         4.95200        21.92000
C           7.97400        10.67800        19.63700
O           8.62000        11.28600        18.50900
H           8.57800        12.26600        18.70200
C           8.30600         9.21800        19.89700
O           7.55300         8.78600        21.04000
C           8.28700         7.64200        21.49900
O           7.64200         7.31500        22.73800

