# freq=raman b3lyp/6-31+g(2df,p) geom=connectivity

310 6000.com

0 1
 O                  7.52600000    7.45300000   12.25600000
 C                  8.11700000    7.89500000   13.48700000
 C                  7.70700000    9.29800000   13.90500000
 O                  8.09900000   10.32600000   12.98300000
 H                  7.73200000   10.06100000   12.09100000
 C                  8.20600000    9.63700000   15.30000000
 O                  7.86800000   10.91000000   15.87000000
 H                  8.25200000   11.00000000   16.78900000
 C                  8.31900000    5.46200000   14.39700000
 O                  7.76100000    4.57400000   13.41800000
 H                  8.18300000    3.67800000   13.56000000
 C                  7.71000000    6.85000000   14.51300000
 O                  8.13500000    7.27400000   15.81600000
 C                  7.76000000    8.57500000   16.29200000
 O                  8.59100000    8.62400000   17.46100000
 C                  7.92800000    8.42700000   18.71800000
 C                  8.37400000    7.08100000   19.26400000
 O                  8.13800000    6.08300000   18.26000000
 H                  8.46900000    6.46900000   17.39800000
 C                  7.88500000    6.78400000   20.67200000
 O                  8.54300000    5.54800000   20.98800000
 H                  8.20400000    5.30300000   21.89600000
 C                  8.05500000   10.83300000   19.60600000
 O                  8.50500000   11.40600000   18.37000000
 H                  8.47900000   12.38600000   18.57000000
 C                  8.46200000    9.37800000   19.77700000
 O                  8.05700000    9.20300000   21.14300000
 C                  8.36000000    7.88100000   21.61100000
 O                  7.63300000    7.71200000   22.83600000
 H                  8.25106980    7.61161048   23.56367553
 H                  8.21903818    7.22850939   11.63077840
 H                  8.23590006    4.98807650   15.35271487
 H                  9.35934937    5.57933740   14.17608117
 H                  6.64377241    6.76033751   14.50859843
 H                  9.18144182    7.87102967   13.38075012
 H                  6.63781280    9.30867763   13.94530791
 H                  9.27437902    9.59491300   15.25883016
 H                  6.71843880    8.63861553   16.52865021
 H                  8.46340757   11.40068846   20.41583521
 H                  9.53038010    9.32933191   19.74390351
 H                  6.86358422    8.48648616   18.62645523
 H                  6.98765349   10.89731171   19.64518455
 H                  9.43849979    7.14771884   19.34937443
 H                  6.82071673    6.67717855   20.70011234
 H                  9.41048119    7.78448519   21.79009258

 1 2 1.0 31 1.0
 2 3 1.0 12 1.0 35 1.0
 3 4 1.0 6 1.0 36 1.0
 4 5 1.0
 5
 6 7 1.0 14 1.0 37 1.0
 7 8 1.0
 8
 9 10 1.0 12 1.0 32 1.0 33 1.0
 10 11 1.0
 11
 12 13 1.0 34 1.0
 13 14 1.0
 14 15 1.0 38 1.0
 15 16 1.0
 16 17 1.0 26 1.0 41 1.0
 17 18 1.0 20 1.0 43 1.0
 18 19 1.0
 19
 20 21 1.0 28 1.0 44 1.0
 21 22 1.0
 22
 23 24 1.0 26 1.0 39 1.0 42 1.0
 24 25 1.0
 25
 26 27 1.0 40 1.0
 27 28 1.0
 28 29 1.0 45 1.0
 29 30 1.0
 30
 31
 32
 33
 34
 35
 36
 37
 38
 39
 40
 41
 42
 43
 44
 45

