# freq=raman b3lyp/6-31+g(2d,p) geom=connectivity
290 6000.com
290 6000.com
C           7.94500         7.97100         2.83000
0 1
O           8.08100        10.52000        23.46200
H           8.04700        10.07800        22.56600
C           8.30200         9.85900        25.79600
O           8.06400        11.22700        26.15600
H           8.32000        11.30800        27.11900
C           8.24700         5.66600        24.88400
O           7.72800         4.83000        23.83900
H           8.04700         3.91300        24.07800
C           7.77000         7.10200        25.03600
O           8.24400         7.59100        26.29800
C           7.79000         8.85200        26.81300
O           8.63000         8.84400        27.97600
C           7.92700         8.49700        29.17800
C           8.48400         7.17400        29.67900
O           8.20200         6.09400        28.77800
H           8.33800         6.33900        27.81800
C           7.97600         6.85500        31.07500
O           8.41300         5.61100        31.64200
H           7.80600         5.47900        32.42500
C           7.92200        10.92000        30.02900
O           8.56200        11.55000        28.91000
H           8.37400        12.52800        28.82000
C           8.32300         9.47400        30.27300
O           7.76200         9.14700        31.55300
C           8.32900         7.93900        32.08000
O           7.58100         7.74500        33.28900
C           8.29200         7.97500        34.51400
C           7.84100         9.37700        34.89000
O           7.97000        10.43100        33.92500

