# freq=raman b3lyp/6-31+g(2d,p) geom=connectivity

350 6054/6054.com

0 1
 O                  7.49400000    7.56800000   12.35200000
 C                  8.15000000    7.91100000   13.58100000
 C                  7.53800000    9.19600000   14.11500000
 O                  7.49300000   10.22600000   13.11700000
 H                  7.79800000    9.93500000   12.21100000
 C                  8.16800000    9.71300000   15.39800000
 O                  7.62700000   10.90600000   15.98500000
 H                  8.07200000   11.00100000   16.87500000
 C                  8.35000000    5.44200000   14.40300000
 O                  7.52700000    4.78800000   13.42500000
 H                  7.65200000    3.83700000   13.70900000
 C                  8.09600000    6.90600000   14.72000000
 O                  8.77400000    7.42300000   15.87500000
 C                  8.06200000    8.56000000   16.38400000
 O                  8.90500000    8.83600000   17.51300000
 C                  8.40800000    8.43300000   18.79700000
 C                  8.99600000    7.12200000   19.29200000
 O                  8.79000000    6.00000000   18.42200000
 H                  9.01900000    6.33000000   17.50600000
 C                  8.28900000    6.78100000   20.59300000
 O                  8.78800000    5.57300000   21.18500000
 H                  8.30700000    5.41100000   22.04600000
 C                  8.22200000   10.89700000   19.54600000
 O                  8.82200000   11.49500000   18.38800000
 H                  8.49200000   12.43500000   18.30300000
 C                  8.66400000    9.47900000   19.87000000
 O                  8.02400000    9.08500000   21.09300000
 C                  8.50000000    7.85200000   21.65200000
 O                  7.60100000    7.61500000   22.74400000
 H                  8.10561038    7.44178577   23.54210100
 H                  8.15263153    7.38025092   11.67927807
 H                  8.44279878   11.51502327   20.39110066
 H                  7.16141946   10.89017952   19.40449949
 H                  8.25588008    4.89524648   15.31793280
 H                  9.36519099    5.35664899   14.07588770
 H                  7.06584742    6.91488824   15.00914816
 H                  9.17955087    8.10126130   13.36026115
 H                  6.52100087    8.96464071   14.35392603
 H                  9.20586383    9.88749375   15.20489227
 H                  7.05483320    8.33049204   16.66300024
 H                  9.51938632    7.91777296   21.97047363
 H                  7.24104623    6.67371318   20.40543022
 H                 10.04292061    7.24560300   19.47524722
 H                  7.34924486    8.30469895   18.71053384
 H                  9.71862951    9.50379007   20.04900295

 1 2 1.0 31 1.0
 2 3 1.0 12 1.0 37 1.0
 3 4 1.0 6 1.0 38 1.0
 4 5 1.0
 5
 6 7 1.0 14 1.0 39 1.0
 7 8 1.0
 8
 9 10 1.0 12 1.0 34 1.0 35 1.0
 10 11 1.0
 11
 12 13 1.0 36 1.0
 13 14 1.0
 14 15 1.0 40 1.0
 15 16 1.0
 16 17 1.0 26 1.0 44 1.0
 17 18 1.0 20 1.0 43 1.0
 18 19 1.0
 19
 20 21 1.0 28 1.0 42 1.0
 21 22 1.0
 22
 23 24 1.0 26 1.0 32 1.0 33 1.0
 24 25 1.0
 25
 26 27 1.0 45 1.0
 27 28 1.0
 28 29 1.0 41 1.0
 29 30 1.0
 30
 31
 32
 33
 34
 35
 36
 37
 38
 39
 40
 41
 42
 43
 44
 45

