# freq=raman b3lyp/6-31+g(2d,p) geom=connectivity

350 6054/6054.com

0 1
O           7.49400         7.56800        12.35200
C           8.15000         7.91100        13.58100
C           7.53800         9.19600        14.11500
O           7.49300        10.22600        13.11700
H           7.79800         9.93500        12.21100
C           8.16800         9.71300        15.39800
O           7.62700        10.90600        15.98500
H           8.07200        11.00100        16.87500
C           8.35000         5.44200        14.40300
O           7.52700         4.78800        13.42500
H           7.65200         3.83700        13.70900
C           8.09600         6.90600        14.72000
O           8.77400         7.42300        15.87500
C           8.06200         8.56000        16.38400
O           8.90500         8.83600        17.51300
C           8.40800         8.43300        18.79700
C           8.99600         7.12200        19.29200
O           8.79000         6.00000        18.42200
H           9.01900         6.33000        17.50600
C           8.28900         6.78100        20.59300
O           8.78800         5.57300        21.18500
H           8.30700         5.41100        22.04600
C           8.22200        10.89700        19.54600
O           8.82200        11.49500        18.38800
H           8.49200        12.43500        18.30300
C           8.66400         9.47900        19.87000
O           8.02400         9.08500        21.09300
C           8.50000         7.85200        21.65200
O           7.60100         7.61500        22.74400

