# freq=raman b3lyp/6-31+g(2d,p) geom=connectivity

400 6533/6533.com

0 1
 O                  8.45000000    7.85500000   12.06000000
 C                  9.13400000    8.09300000   13.29900000
 C                  8.97100000    9.51800000   13.80100000
 O                  9.26500000   10.45200000   12.75200000
 H                  8.74000000   10.25800000   11.92300000
 C                  9.67800000    9.73400000   15.13000000
 O                  9.51800000   11.10400000   15.52300000
 H                  9.55700000   11.15300000   16.52100000
 C                  8.29500000    5.79000000   14.06100000
 O                  9.32000000    5.08700000   13.34400000
 H                  9.20400000    4.12500000   13.09800000
 C                  8.56500000    7.24200000   14.42300000
 O                  9.27500000    7.33800000   15.66600000
 C                  9.14400000    8.69800000   16.10500000
 O                  9.84800000    8.81300000   17.35000000
 C                  9.20900000    8.61400000   18.62000000
 C                  9.48200000    7.20400000   19.11900000
 O                  8.70100000    6.30300000   18.32100000
 H                  8.65600000    6.52800000   17.34800000
 C                  9.09900000    6.91500000   20.56100000
 O                  9.58100000    5.63700000   21.00200000
 H                  9.31800000    5.49500000   21.95600000
 C                  9.52300000   10.96300000   19.30100000
 O                 10.21100000   11.61200000   18.22100000
 H                  9.87400000   12.54000000   18.37700000
 C                  9.86100000    9.52200000   19.65000000
 O                  9.21600000    9.35500000   20.92100000
 C                  9.58900000    8.06500000   21.42600000
 O                  8.82500000    7.80400000   22.61200000
 H                  9.42069282    7.64219872   23.34723494
 H                  9.09316935    7.72055620   11.36010140
 H                  7.40374141    5.76084019   13.46963901
 H                  8.10658428    5.25632175   14.96906775
 H                  7.60083129    7.66125099   14.62176445
 H                 10.17457209    7.87466052   13.17884346
 H                  7.92804931    9.63694560   14.00837841
 H                 10.72222564    9.54918744   14.98739172
 H                  8.10784198    8.89968959   16.27992248
 H                  9.68722854   11.54980317   20.18054023
 H                  8.47698711   10.99904999   19.07860975
 H                 10.91741198    9.36466087   19.71432827
 H                  8.15745870    8.80101317   18.55529327
 H                 10.51967412    6.98129167   18.98286249
 H                  8.03066137    6.89644735   20.61764244
 H                 10.64026865    7.99838660   21.61387464

 1 2 1.0 31 1.0
 2 3 1.0 12 1.0 35 1.0
 3 4 1.0 6 1.0 36 1.0
 4 5 1.0
 5
 6 7 1.0 14 1.0 37 1.0
 7 8 1.0
 8
 9 10 1.0 12 1.0 32 1.0 33 1.0
 10 11 1.0
 11
 12 13 1.0 34 1.0
 13 14 1.0
 14 15 1.0 38 1.0
 15 16 1.0
 16 17 1.0 26 1.0 42 1.0
 17 18 1.0 20 1.0 43 1.0
 18 19 1.0
 19
 20 21 1.0 28 1.0 44 1.0
 21 22 1.0
 22
 23 24 1.0 26 1.0 39 1.0 40 1.0
 24 25 1.0
 25
 26 27 1.0 41 1.0
 27 28 1.0
 28 29 1.0 45 1.0
 29 30 1.0
 30
 31
 32
 33
 34
 35
 36
 37
 38
 39
 40
 41
 42
 43
 44
 45

