# freq=raman b3lyp/6-31+g(2d,p) geom=connectivity

500 5403/5403.com

0 1
 O                  8.82100000    7.47900000   12.05100000
 C                  9.42200000    7.59500000   13.34900000
 C                  8.91800000    8.93700000   13.85500000
 O                  9.18700000   10.07300000   13.02100000
 H                  9.17800000    9.72900000   12.08200000
 C                  9.54100000    9.23000000   15.21000000
 O                  9.25000000   10.51900000   15.76800000
 H                  9.70100000   11.30300000   15.34000000
 C                  9.02300000    5.15100000   13.98200000
 O                  8.51200000    4.27600000   14.99800000
 H                  8.60300000    3.38900000   14.54600000
 C                  8.88700000    6.61200000   14.37700000
 O                  9.41400000    6.91100000   15.67800000
 C                  9.12600000    8.19700000   16.24500000
 O                  9.86300000    8.15900000   17.47600000
 C                  9.13500000    7.95100000   18.69600000
 C                  9.23100000    6.47100000   19.02600000
 O                  8.55900000    5.65200000   18.05800000
 H                  9.00500000    5.59900000   17.16500000
 C                  8.49200000    6.36500000   20.35100000
 O                  8.21400000    4.99100000   20.65600000
 H                  7.76600000    4.73100000   19.80100000
 C                 10.16300000   10.12000000   19.55600000
 O                 10.65300000   10.98100000   20.59400000
 H                 10.44600000   11.93000000   20.35800000
 C                  9.95600000    8.63100000   19.77900000
 O                  9.44600000    8.39400000   21.09900000
 C                  9.32700000    7.00700000   21.44700000
 O                  8.66100000    6.92200000   22.71500000
 H                  9.31414244    6.87494228   23.41699040
 H                 10.29304019    6.54986806   21.49893004
 H                  7.56507829    6.89349323   20.27093096
 H                 10.25225558    6.17146395   19.13652234
 H                  8.12676714    8.30633495   18.65013539
 H                 10.92710338    8.18299891   19.74504054
 H                  9.22042932   10.51889909   19.24400636
 H                 10.83730770   10.21728018   18.73092685
 H                  9.50888923    7.41939362   11.38402512
 H                 10.05685888    4.92894597   13.81851352
 H                  8.48247072    4.98372174   13.07384468
 H                  7.83508318    6.79806374   14.43824771
 H                 10.49045317    7.57270145   13.29598498
 H                  7.85827942    8.86458124   13.98402641
 H                 10.60260148    9.16275207   15.09432804
 H                  8.07861693    8.28048174   16.44728568

 1 2 1.0 38 1.0
 2 3 1.0 12 1.0 42 1.0
 3 4 1.0 6 1.0 43 1.0
 4 5 1.0
 5
 6 7 1.0 14 1.0 44 1.0
 7 8 1.0
 8
 9 10 1.0 12 1.0 39 1.0 40 1.0
 10 11 1.0
 11
 12 13 1.0 41 1.0
 13 14 1.0
 14 15 1.0 45 1.0
 15 16 1.0
 16 17 1.0 26 1.0 34 1.0
 17 18 1.0 20 1.0 33 1.0
 18 19 1.0
 19
 20 21 1.0 28 1.0 32 1.0
 21 22 1.0
 22
 23 24 1.0 26 1.0 36 1.0 37 1.0
 24 25 1.0
 25
 26 27 1.0 35 1.0
 27 28 1.0
 28 29 1.0 31 1.0
 29 30 1.0
 30
 31
 32
 33
 34
 35
 36
 37
 38
 39
 40
 41
 42
 43
 44
 45

