# freq=raman b3lyp/6-31+g(d,p) geom=connectivity

500 6000.com

0 1
O           8.70000         6.65900        22.89500
C           9.54300         6.99200        24.00800
C           9.32600         8.41900        24.48400
O          10.13200         9.07200        23.49300
H           9.66500         8.93500        22.62000
C           9.97800         8.71500        25.82500
O           9.76400        10.02700        26.36500
H          10.19600        10.82000        25.93400
C           9.60400         4.64000        24.73400
O           8.94700         3.55800        25.41000
H           8.79300         2.84500        24.72500
C           9.07600         6.02200        25.08100
O           9.73300         6.35500        26.31300
C           9.42300         7.67400        26.78400
O          10.15600         7.46400        28.00000
C           9.42200         7.36200        29.22800
C           9.35700         5.91800        29.70100
O           8.86300         4.94600        28.76800
H           9.27400         5.10200        27.87000
C           8.52700         5.79000        30.96800
O           8.67900         4.41300        31.34200
H           8.24200         3.97400        30.55600
C          10.30400         9.54800        29.86800
O          10.80000        10.32600        30.96700
H          10.66500        11.28600        30.72200
C           9.98900         8.15700        30.39300
O           9.22900         7.95100        31.59200
C           9.28000         6.58300        32.02300
O           8.71000         6.65700        33.33800

