# freq=raman b3lyp/6-31+g(d,p) geom=connectivity

500 6000.com

0 1
 O                  8.70000000    6.65900000   22.89500000
 C                  9.54300000    6.99200000   24.00800000
 C                  9.32600000    8.41900000   24.48400000
 O                 10.13200000    9.07200000   23.49300000
 H                  9.66500000    8.93500000   22.62000000
 C                  9.97800000    8.71500000   25.82500000
 O                  9.76400000   10.02700000   26.36500000
 H                 10.19600000   10.82000000   25.93400000
 C                  9.60400000    4.64000000   24.73400000
 O                  8.94700000    3.55800000   25.41000000
 H                  8.79300000    2.84500000   24.72500000
 C                  9.07600000    6.02200000   25.08100000
 O                  9.73300000    6.35500000   26.31300000
 C                  9.42300000    7.67400000   26.78400000
 O                 10.15600000    7.46400000   28.00000000
 C                  9.42200000    7.36200000   29.22800000
 C                  9.35700000    5.91800000   29.70100000
 O                  8.86300000    4.94600000   28.76800000
 H                  9.27400000    5.10200000   27.87000000
 C                  8.52700000    5.79000000   30.96800000
 O                  8.67900000    4.41300000   31.34200000
 H                  8.24200000    3.97400000   30.55600000
 C                 10.30400000    9.54800000   29.86800000
 O                 10.80000000   10.32600000   30.96700000
 H                 10.66500000   11.28600000   30.72200000
 C                  9.98900000    8.15700000   30.39300000
 O                  9.22900000    7.95100000   31.59200000
 C                  9.28000000    6.58300000   32.02300000
 O                  8.71000000    6.65700000   33.33800000
 H                  9.41354913    6.69369774   33.99012874
 H                 10.29629373    6.25293427   32.07871066
 H                  7.50789012    6.09261482   30.84659442
 H                 10.35679969    5.62942253   29.95004542
 H                  8.42322138    7.70075766   29.04748819
 H                 10.94331010    7.71908815   30.59897440
 H                 11.04814936    9.48677576   29.10158410
 H                  9.41565823    9.99795973   29.47648353
 H                  9.24461937    6.43239535   22.13760970
 H                 10.64556284    4.60631266   24.97671799
 H                  9.49707634    4.49323503   23.67952033
 H                  8.01112291    6.02519673   25.18553023
 H                 10.57192622    6.82319714   23.76775757
 H                  8.30023106    8.72016523   24.43930562
 H                 11.03218943    8.55901778   25.72880127
 H                  8.37491317    7.79589557   26.96163860

 1 2 1.0 38 1.0
 2 3 1.0 12 1.0 42 1.0
 3 4 1.0 6 1.0 43 1.0
 4 5 1.0
 5
 6 7 1.0 14 1.0 44 1.0
 7 8 1.0
 8
 9 10 1.0 12 1.0 39 1.0 40 1.0
 10 11 1.0
 11
 12 13 1.0 41 1.0
 13 14 1.0
 14 15 1.0 45 1.0
 15 16 1.0
 16 17 1.0 26 1.0 34 1.0
 17 18 1.0 20 1.0 33 1.0
 18 19 1.0
 19
 20 21 1.0 28 1.0 32 1.0
 21 22 1.0
 22
 23 24 1.0 26 1.0 36 1.0 37 1.0
 24 25 1.0
 25
 26 27 1.0 35 1.0
 27 28 1.0
 28 29 1.0 31 1.0
 29 30 1.0
 30
 31
 32
 33
 34
 35
 36
 37
 38
 39
 40
 41
 42
 43
 44
 45

