# freq=raman b3lyp/6-31+g(2d,p) geom=connectivity

350 6345/6345.com

0 1
O           7.46900         7.67200        12.16900
C           8.18600         8.08700        13.34100
C           7.65300         9.43600        13.79500
O           7.83000        10.47500        12.82000
H           7.59400        10.12500        11.91300
C           8.29200         9.71600        15.14500
O           7.92300        10.95500        15.76700
H           8.33900        11.09200        16.66500
C           8.56200         5.78900        14.14700
O           8.15100         4.85000        13.14300
H           8.12200         3.90300        13.46500
C           7.81500         7.08400        14.42100
O           8.44200         7.34800        15.68400
C           8.01300         8.62900        16.17000
O           8.89400         8.73100        17.29800
C           8.31900         8.34600        18.55400
C           8.70500         6.97900        19.09400
O           8.33200         6.04400        18.07000
H           8.74700         6.37000        17.22100
C           8.26400         6.80200        20.53800
O           8.80200         5.56900        21.03900
H           8.27500         5.34800        21.86000
C           8.07000        10.78400        19.45700
O           8.67300        11.45100        18.33900
H           8.47700        12.42800        18.42300
C           8.65200         9.38800        19.60900
O           8.06600         9.13400        20.89400
C           8.60100         7.94100        21.48600
O           7.75400         7.78100        22.63400

