# freq=raman b3lyp/6-31+g(2d,p) geom=connectivity

350 6345/6345.com

0 1
 O                  7.46900000    7.67200000   12.16900000
 C                  8.18600000    8.08700000   13.34100000
 C                  7.65300000    9.43600000   13.79500000
 O                  7.83000000   10.47500000   12.82000000
 H                  7.59400000   10.12500000   11.91300000
 C                  8.29200000    9.71600000   15.14500000
 O                  7.92300000   10.95500000   15.76700000
 H                  8.33900000   11.09200000   16.66500000
 C                  8.56200000    5.78900000   14.14700000
 O                  8.15100000    4.85000000   13.14300000
 H                  8.12200000    3.90300000   13.46500000
 C                  7.81500000    7.08400000   14.42100000
 O                  8.44200000    7.34800000   15.68400000
 C                  8.01300000    8.62900000   16.17000000
 O                  8.89400000    8.73100000   17.29800000
 C                  8.31900000    8.34600000   18.55400000
 C                  8.70500000    6.97900000   19.09400000
 O                  8.33200000    6.04400000   18.07000000
 H                  8.74700000    6.37000000   17.22100000
 C                  8.26400000    6.80200000   20.53800000
 O                  8.80200000    5.56900000   21.03900000
 H                  8.27500000    5.34800000   21.86000000
 C                  8.07000000   10.78400000   19.45700000
 O                  8.67300000   11.45100000   18.33900000
 H                  8.47700000   12.42800000   18.42300000
 C                  8.65200000    9.38800000   19.60900000
 O                  8.06600000    9.13400000   20.89400000
 C                  8.60100000    7.94100000   21.48600000
 O                  7.75400000    7.78100000   22.63400000
 H                  8.29597590    7.67162133   23.41879196
 H                  8.25825017   11.34539685   20.34823255
 H                  7.01405941   10.71250795   19.29958860
 H                  9.71468665    9.45767904   19.71264326
 H                  7.25645193    8.34729307   18.42794478
 H                  9.77453514    6.96292693   19.12113380
 H                  7.19851340    6.70404213   20.53147609
 H                  9.64117217    8.01112746   21.72688172
 H                  8.09319894    7.42854647   11.48146377
 H                  8.58921480    5.25222618   15.07222064
 H                  9.56943487    6.06298911   13.91268195
 H                  6.75924919    6.93381130   14.50894082
 H                  9.24216497    8.11346796   13.17154500
 H                  6.60066073    9.32754783   13.95537516
 H                  9.35047490    9.74281911   14.99068982
 H                  6.98606064    8.61412059   16.47012358

 1 2 1.0 38 1.0
 2 3 1.0 12 1.0 42 1.0
 3 4 1.0 6 1.0 43 1.0
 4 5 1.0
 5
 6 7 1.0 14 1.0 44 1.0
 7 8 1.0
 8
 9 10 1.0 12 1.0 39 1.0 40 1.0
 10 11 1.0
 11
 12 13 1.0 41 1.0
 13 14 1.0
 14 15 1.0 45 1.0
 15 16 1.0
 16 17 1.0 26 1.0 34 1.0
 17 18 1.0 20 1.0 35 1.0
 18 19 1.0
 19
 20 21 1.0 28 1.0 36 1.0
 21 22 1.0
 22
 23 24 1.0 26 1.0 31 1.0 32 1.0
 24 25 1.0
 25
 26 27 1.0 33 1.0
 27 28 1.0
 28 29 1.0 37 1.0
 29 30 1.0
 30
 31
 32
 33
 34
 35
 36
 37
 38
 39
 40
 41
 42
 43
 44
 45

