# freq=raman b3lyp/6-31+g(2d,p) geom=connectivity

290 8281/8281.com

0 1
 O                  7.60700000    7.49300000   12.19600000
 C                  8.05600000    8.04300000   13.44400000
 C                  7.49100000    9.32200000   14.03900000
 O                  7.67600000   10.38100000   13.08800000
 H                  7.30900000   10.01900000   12.23100000
 C                  8.04300000    9.73200000   15.39400000
 O                  7.31400000   10.76100000   16.07900000
 H                  7.82700000   10.81400000   16.93600000
 C                  8.49300000    5.57900000   14.28500000
 O                  8.01200000    4.77300000   13.19900000
 H                  8.23900000    3.80000000   13.25100000
 C                  7.89800000    6.96100000   14.50000000
 O                  8.62600000    7.36900000   15.66700000
 C                  8.03100000    8.51200000   16.30000000
 O                  8.93600000    8.63500000   17.40700000
 C                  8.24200000    8.31000000   18.62100000
 C                  8.74700000    6.97600000   19.14600000
 O                  8.75500000    5.95800000   18.13500000
 H                  9.09200000    6.16700000   17.21700000
 C                  8.07700000    6.57400000   20.44900000
 O                  8.71400000    5.45000000   21.07200000
 H                  8.30000000    5.19400000   21.94500000
 C                  8.15200000   10.76300000   19.51600000
 O                  8.50700000   11.46200000   18.31400000
 H                  8.22800000   12.42200000   18.33300000
 C                  8.57200000    9.31500000   19.71200000
 O                  7.85600000    8.89300000   20.88200000
 C                  8.34500000    7.67500000   21.46200000
 O                  7.66200000    7.42600000   22.70000000
 H                  8.30587537    7.28559525   23.39807665
 H                  8.36663684    7.25628103   11.65886314
 H                  8.34385739    5.02268129   15.18675716
 H                  9.54721873    5.70213852   14.14950178
 H                  6.86189293    6.86219995   14.74823517
 H                  9.10686211    8.20978130   13.33098309
 H                  6.43727948    9.17833676   14.15704207
 H                  9.05487746   10.05594975   15.26726975
 H                  7.04029837    8.29002123   16.63783975
 H                  8.55357799   11.32139149   20.33565485
 H                  7.08550758   10.79548365   19.59624173
 H                  9.62246930    9.28018446   19.91250471
 H                  7.18604999    8.27159376   18.45249324
 H                  9.77526810    7.13751559   19.39394641
 H                  7.02766466    6.40932305   20.31986112
 H                  9.39719166    7.75558179   21.63891602

 1 2 1.0 31 1.0
 2 3 1.0 12 1.0 35 1.0
 3 4 1.0 6 1.0 36 1.0
 4 5 1.0
 5
 6 7 1.0 14 1.0 37 1.0
 7 8 1.0
 8
 9 10 1.0 12 1.0 32 1.0 33 1.0
 10 11 1.0
 11
 12 13 1.0 34 1.0
 13 14 1.0
 14 15 1.0 38 1.0
 15 16 1.0
 16 17 1.0 26 1.0 42 1.0
 17 18 1.0 20 1.0 43 1.0
 18 19 1.0
 19
 20 21 1.0 28 1.0 44 1.0
 21 22 1.0
 22
 23 24 1.0 26 1.0 39 1.0 40 1.0
 24 25 1.0
 25
 26 27 1.0 41 1.0
 27 28 1.0
 28 29 1.0 45 1.0
 29 30 1.0
 30
 31
 32
 33
 34
 35
 36
 37
 38
 39
 40
 41
 42
 43
 44
 45

