# freq=raman b3lyp/6-31+g(2d,p) geom=connectivity

290 8281/8281.com

0 1
O           7.60700         7.49300        12.19600
C           8.05600         8.04300        13.44400
C           7.49100         9.32200        14.03900
O           7.67600        10.38100        13.08800
H           7.30900        10.01900        12.23100
C           8.04300         9.73200        15.39400
O           7.31400        10.76100        16.07900
H           7.82700        10.81400        16.93600
C           8.49300         5.57900        14.28500
O           8.01200         4.77300        13.19900
H           8.23900         3.80000        13.25100
C           7.89800         6.96100        14.50000
O           8.62600         7.36900        15.66700
C           8.03100         8.51200        16.30000
O           8.93600         8.63500        17.40700
C           8.24200         8.31000        18.62100
C           8.74700         6.97600        19.14600
O           8.75500         5.95800        18.13500
H           9.09200         6.16700        17.21700
C           8.07700         6.57400        20.44900
O           8.71400         5.45000        21.07200
H           8.30000         5.19400        21.94500
C           8.15200        10.76300        19.51600
O           8.50700        11.46200        18.31400
H           8.22800        12.42200        18.33300
C           8.57200         9.31500        19.71200
O           7.85600         8.89300        20.88200
C           8.34500         7.67500        21.46200
O           7.66200         7.42600        22.70000

