# freq=raman b3lyp/6-31+g(2d,p) geom=connectivity

483 5544/5544.com

0 1
O           7.61100         7.55000        12.23700
C           8.30600         7.87800        13.44900
C           7.90800         9.26900        13.91500
O           8.42200        10.27700        13.03200
H           7.89700        10.07200        12.20500
C           8.34900         9.46100        15.35600
O           7.83400        10.70200        15.86100
H           8.34800        11.11400        16.61300
C           8.47400         5.41500        14.16100
O           7.98800         4.76900        12.97500
H           8.20400         3.79800        13.07500
C           7.99200         6.81800        14.49200
O           8.47200         7.05100        15.82400
C           7.96300         8.31400        16.27500
O           8.71800         8.61200        17.45900
C           8.22500         8.27900        18.76400
C           8.68600         6.91200        19.24300
O           8.22100         5.96100        18.27400
H           8.31400         6.33300        17.35100
C           8.38900         6.48800        20.67200
O           8.94200         5.23600        21.10200
H           8.72800         5.12700        22.07300
C           8.37400        10.69700        19.55100
O           8.72600        11.40600        18.35400
H           8.39900        12.34400        18.47100
C           8.73000         9.24500        19.82400
O           8.32700         8.92000        21.16200
C           8.69000         7.61800        21.64300
O           7.91900         7.49700        22.84700

