# freq=raman b3lyp/6-31+g(2d,p) geom=connectivity
550 5000.com
550 5000.com
C          10.08900         7.84700         1.63400
0 1
O          10.27400         9.37800        22.47800
H          10.00600         8.93000        21.62500
C          10.88800         8.44500        24.61000
O          10.94000         9.63800        25.40600
H          11.04500        10.43000        24.80500
C           9.62900         4.52000        22.98800
O           9.03900         3.59100        23.90900
H           8.99900         2.68900        23.47900
C           9.92400         5.88900        23.58000
O          10.71700         6.01400        24.76900
C          10.52200         7.24900        25.47400
O          11.18400         7.20400        26.74600
C          10.42300         7.47300        27.93300
C           9.64200         6.21500        28.27600
O           8.35800         6.15400        27.64000
H           8.49700         6.60300        26.75700
C           9.25300         6.08300        29.74000
O           8.79100         4.73100        29.87500
H           7.83400         4.80900        29.59600
C          11.85800         9.14200        28.78400
O          10.97900        10.25100        28.54400
H          11.40700        10.71500        27.76800
C          11.29500         7.77600        29.14000
O          10.63800         7.95500        30.40400
C          10.33000         6.58200        30.68900
O           9.61700         6.53500        31.93300
C          10.24800         6.69300        33.21200
C          10.04500         8.08600        33.78500
O          10.64100         8.96400        32.82000

