# freq=raman b3lyp/6-31+g(2d,p) geom=connectivity

290 5418/5418.com

0 1
O           7.51000         7.55100        12.37500
C           8.12000         7.82800        13.64400
C           7.62700         9.18400        14.12300
O           7.95300        10.23500        13.20100
H           8.01800         9.74900        12.32900
C           8.03100         9.44000        15.56500
O           7.68400        10.72900        16.09400
H           8.18300        10.74800        16.96000
C           7.94400         5.38100        14.50000
O           7.73800         4.76200        13.22200
H           7.78100         3.77000        13.34300
C           7.54600         6.84000        14.64700
O           8.09800         7.03900        15.95600
C           7.72800         8.30200        16.52700
O           8.65600         8.44500        17.61200
C           8.16600         8.14200        18.92600
C           8.72500         6.81600        19.41500
O           8.60200         5.83200        18.37800
H           8.70000         6.21400        17.45900
C           8.19600         6.49000        20.80300
O           8.93600         5.37600        21.32300
H           8.52300         5.15000        22.20500
C           7.89100        10.61500        19.56400
O           8.68700        11.37200        18.64000
H           8.62300        12.35200        18.82700
C           8.44600         9.24800        19.93000
O           7.81200         8.91200        21.17200
C           8.25800         7.67700        21.75100
O           7.37400         7.56000        22.87400

