# freq=raman b3lyp/6-31+g(2d,p) geom=connectivity

290 5418/5418.com

0 1
 O                  7.51000000    7.55100000   12.37500000
 C                  8.12000000    7.82800000   13.64400000
 C                  7.62700000    9.18400000   14.12300000
 O                  7.95300000   10.23500000   13.20100000
 H                  8.01800000    9.74900000   12.32900000
 C                  8.03100000    9.44000000   15.56500000
 O                  7.68400000   10.72900000   16.09400000
 H                  8.18300000   10.74800000   16.96000000
 C                  7.94400000    5.38100000   14.50000000
 O                  7.73800000    4.76200000   13.22200000
 H                  7.78100000    3.77000000   13.34300000
 C                  7.54600000    6.84000000   14.64700000
 O                  8.09800000    7.03900000   15.95600000
 C                  7.72800000    8.30200000   16.52700000
 O                  8.65600000    8.44500000   17.61200000
 C                  8.16600000    8.14200000   18.92600000
 C                  8.72500000    6.81600000   19.41500000
 O                  8.60200000    5.83200000   18.37800000
 H                  8.70000000    6.21400000   17.45900000
 C                  8.19600000    6.49000000   20.80300000
 O                  8.93600000    5.37600000   21.32300000
 H                  8.52300000    5.15000000   22.20500000
 C                  7.89100000   10.61500000   19.56400000
 O                  8.68700000   11.37200000   18.64000000
 H                  8.62300000   12.35200000   18.82700000
 C                  8.44600000    9.24800000   19.93000000
 O                  7.81200000    8.91200000   21.17200000
 C                  8.25800000    7.67700000   21.75100000
 O                  7.37400000    7.56000000   22.87400000
 H                  7.88938343    7.47607197   23.67956565
 H                  8.19321991    7.40717781   11.71611781
 H                  7.39602098    4.81863212   15.22688470
 H                  8.98434778    5.30125857   14.73710294
 H                  6.48018879    6.92782885   14.68210788
 H                  9.18798166    7.78056704   13.59855458
 H                  6.55876475    9.12270034   14.12697446
 H                  9.10005962    9.46196025   15.52589414
 H                  6.71219013    8.31273696   16.86302831
 H                  7.78671683   11.18609016   20.46282204
 H                  6.91960457   10.47892890   19.13647741
 H                  9.50216589    9.32587248   20.08280542
 H                  7.10366467    8.03579821   18.85483246
 H                  9.77651777    6.96983262   19.53968321
 H                  7.17204905    6.19444982   20.70773963
 H                  9.26162400    7.79457626   22.10287312

 1 2 1.0 31 1.0
 2 3 1.0 12 1.0 35 1.0
 3 4 1.0 6 1.0 36 1.0
 4 5 1.0
 5
 6 7 1.0 14 1.0 37 1.0
 7 8 1.0
 8
 9 10 1.0 12 1.0 32 1.0 33 1.0
 10 11 1.0
 11
 12 13 1.0 34 1.0
 13 14 1.0
 14 15 1.0 38 1.0
 15 16 1.0
 16 17 1.0 26 1.0 42 1.0
 17 18 1.0 20 1.0 43 1.0
 18 19 1.0
 19
 20 21 1.0 28 1.0 44 1.0
 21 22 1.0
 22
 23 24 1.0 26 1.0 39 1.0 40 1.0
 24 25 1.0
 25
 26 27 1.0 41 1.0
 27 28 1.0
 28 29 1.0 45 1.0
 29 30 1.0
 30
 31
 32
 33
 34
 35
 36
 37
 38
 39
 40
 41
 42
 43
 44
 45

