# freq=raman b3lyp/6-31+g(2d,p) geom=connectivity

300 7623/7623.com

0 1
O           7.85400         7.55800        12.10400
C           8.39600         7.95000        13.37400
C           7.77600         9.27000        13.80200
O           8.11900        10.29700        12.85900
H           7.88000         9.83400        12.00500
C           8.06100         9.61700        15.25400
O           7.41300        10.69900        15.93700
H           7.88900        10.92800        16.78600
C           8.16400         5.42500        14.30700
O           7.70600         4.79500        13.10100
H           7.92200         3.82700        13.23000
C           8.00300         6.93100        14.43100
O           8.59300         7.23800        15.70200
C           7.93200         8.41800        16.18000
O           8.76600         8.65200        17.32400
C           8.21300         8.38000        18.61900
C           8.57500         7.01700        19.18700
O           8.01800         6.13300        18.20300
H           8.64800         6.35200        17.45800
C           7.97400         6.78100        20.56300
O           8.40500         5.56000        21.18300
H           8.09300         5.50700        22.13200
C           8.04900        10.86300        19.45200
O           8.57300        11.50500        18.28100
H           8.41800        12.48300        18.41700
C           8.58000         9.45000        19.63400
O           8.10700         9.15800        20.95700
C           8.37700         7.87400        21.53900
O           7.49200         7.72200        22.65700

