# freq=raman b3lyp/6-31+g(2d,p) geom=connectivity

473 8985/8985.com

0 1
O           7.45500         7.30100        12.16700
C           8.01700         7.82600        13.37800
C           7.45100         9.13300        13.90800
O           7.59800        10.17400        12.93200
H           7.41800         9.72800        12.05600
C           8.06100         9.50600        15.24900
O           7.36800        10.66200        15.74300
H           7.86100        11.08100        16.50500
C           8.58700         5.45400        14.18500
O           8.12100         4.63400        13.10300
H           8.17700         3.67900        13.39200
C           7.91600         6.78500        14.48200
O           8.51000         7.21500        15.71600
C           7.94500         8.40300        16.28800
O           8.75900         8.63100        17.44800
C           8.17900         8.29900        18.71800
C           8.72500         6.96900        19.21200
O           8.73500         5.88200        18.27500
H           8.60200         6.29000        17.37200
C           8.19000         6.56700        20.57700
O           8.74900         5.38800        21.17300
H           8.39100         5.29100        22.10200
C           7.79600        10.75200        19.35100
O           8.45400        11.30500        18.20300
H           8.32300        12.29500        18.24500
C           8.38000         9.40400        19.74200
O           7.77500         8.98600        20.97400
C           8.34600         7.77400        21.48800
O           7.58900         7.52600        22.68200

