# freq=raman b3lyp/6-31+g(d,p) geom=connectivity

300 7000.com

0 1
 O                  7.89800000    7.60600000   12.27600000
 C                  8.47700000    8.09500000   13.49500000
 C                  7.73200000    9.33600000   13.96000000
 O                  8.00500000   10.38900000   13.02300000
 H                  7.95000000   10.09700000   12.06800000
 C                  8.23000000    9.81900000   15.31200000
 O                  7.58500000   11.00900000   15.78900000
 H                  7.96500000   11.15400000   16.70300000
 C                  8.86100000    5.67300000   14.20700000
 O                  8.37400000    4.84900000   13.13800000
 H                  8.60300000    3.92000000   13.42600000
 C                  8.19500000    7.00400000   14.51500000
 O                  8.63300000    7.40500000   15.82100000
 C                  7.96400000    8.61600000   16.20100000
 O                  8.54300000    8.93000000   17.47600000
 C                  8.06900000    8.55700000   18.77800000
 C                  8.51200000    7.13900000   19.09900000
 O                  8.14800000    6.12500000   18.15200000
 H                  8.54900000    6.47600000   17.30500000
 C                  8.17300000    6.78000000   20.53700000
 O                  8.42300000    5.46300000   21.04800000
 H                  8.20900000    5.47200000   22.02500000
 C                  8.34300000   10.95700000   19.61900000
 O                  8.71300000   11.55900000   18.37000000
 H                  8.49200000   12.52400000   18.50900000
 C                  8.59300000    9.47800000   19.86800000
 O                  8.18700000    9.08600000   21.18700000
 C                  8.69800000    7.79300000   21.54200000
 O                  7.81500000    7.73700000   22.67200000
 H                  8.33163024    7.69695062   23.48013937
 H                  8.59711363    7.36105547   11.66539186
 H                  9.52630900    8.27664435   13.39080809
 H                  6.68048773    9.14227944   14.00116163
 H                  9.28492042    9.98951570   15.25752710
 H                  6.91199076    8.44793820   16.30065839
 H                  7.13713623    6.84725295   14.55042042
 H                  8.81968586    5.08609041   15.10071711
 H                  9.89154386    5.87638200   14.00324741
 H                  6.99963156    8.59372663   18.77951684
 H                  9.58100091    7.17115056   19.06578272
 H                  9.65654189    9.36199687   19.85005806
 H                  8.85265452   11.49573101   20.39031133
 H                  7.29430399   11.12447155   19.74972855
 H                  9.74229143    7.75329864   21.77173727
 H                  7.10869202    6.88025747   20.58279258

 1 2 1.0 31 1.0
 2 3 1.0 12 1.0 32 1.0
 3 4 1.0 6 1.0 33 1.0
 4 5 1.0
 5
 6 7 1.0 14 1.0 34 1.0
 7 8 1.0
 8
 9 10 1.0 12 1.0 37 1.0 38 1.0
 10 11 1.0
 11
 12 13 1.0 36 1.0
 13 14 1.0
 14 15 1.0 35 1.0
 15 16 1.0
 16 17 1.0 26 1.0 39 1.0
 17 18 1.0 20 1.0 40 1.0
 18 19 1.0
 19
 20 21 1.0 28 1.0 45 1.0
 21 22 1.0
 22
 23 24 1.0 26 1.0 42 1.0 43 1.0
 24 25 1.0
 25
 26 27 1.0 41 1.0
 27 28 1.0
 28 29 1.0 44 1.0
 29 30 1.0
 30
 31
 32
 33
 34
 35
 36
 37
 38
 39
 40
 41
 42
 43
 44
 45

