# freq=raman b3lyp/6-31+g(d,p) geom=connectivity

550 8000.com

0 1
O           9.67500         7.40200        22.07100
C          10.48300         7.25900        23.24800
C          10.85600         8.61200        23.83300
O          11.60000         9.31300        22.82500
H          11.34600         8.95300        21.92800
C          11.66400         8.40500        25.10400
O          11.72800         9.71400        25.68800
H          11.76700        10.48500        25.05100
C           8.76500         5.49300        24.07100
O           9.06800         4.33000        23.28600
H           9.44600         4.63300        22.41200
C           9.76700         6.58500        24.40700
O          10.74700         6.27200        25.40800
C          11.05700         7.46900        26.13600
O          11.92600         7.19500        27.24500
C          11.10100         7.18000        28.41800
C          10.51400         5.87500        28.93100
O           9.71100         5.16400        27.97700
H           8.84400         5.60700        27.75000
C           9.63200         6.22000        30.12000
O           8.83000         5.17700        30.69300
H           8.69400         4.63000        29.86700
C          12.93800         8.80700        29.05700
O          12.49100        10.03500        28.46400
H          11.72400         9.95800        27.82700
C          11.84900         7.86800        29.54800
O          10.84700         8.28000        30.48900
C          10.39700         7.07200        31.12000
O           9.68900         7.29000        32.34900

