# freq=raman b3lyp/6-31+g(2d,p) geom=connectivity

423 7048/7048.com

0 1
O           7.55000         7.33400        12.22300
C           8.16000         7.73800        13.45700
C           7.65200         9.07600        13.96900
O           7.98600        10.10700        13.02900
H           7.72900         9.79700        12.11400
C           8.27000         9.50700        15.28900
O           7.72500        10.73000        15.80600
H           8.16000        10.88200        16.69300
C           8.32300         5.30000        14.34700
O           8.00800         4.63400        13.11600
H           7.84200         3.69800        13.42800
C           7.89000         6.74000        14.57100
O           8.50300         7.13000        15.80900
C           8.06800         8.40100        16.31300
O           8.91900         8.72100        17.42300
C           8.37700         8.39900        18.71200
C           8.88000         7.04500        19.18600
O           8.59400         5.98100        18.26700
H           8.70900         6.46200        17.39800
C           8.27800         6.70600        20.54000
O           8.98100         5.54100        20.99700
H           8.61800         5.42500        21.92200
C           8.20200        10.84300        19.50600
O           8.68100        11.49400        18.32000
H           8.41600        12.43800        18.51600
C           8.59400         9.41000        19.82700
O           7.88900         9.05400        21.02500
C           8.43400         7.83400        21.54700
O           7.60600         7.63000        22.70200

