# freq=raman b3lyp/6-31+g(2d,p) geom=connectivity

493 7000/7000.com

0 1
 O                  7.71500000    7.90100000   12.19800000
 C                  8.35300000    8.16500000   13.45600000
 C                  7.90000000    9.51200000   13.99600000
 O                  8.62000000   10.44300000   13.17400000
 H                  8.68000000   10.13000000   12.22600000
 C                  8.23700000    9.76000000   15.45700000
 O                  7.39900000   10.84600000   15.88000000
 H                  7.66300000   10.98000000   16.83500000
 C                  8.39500000    5.73300000   14.38300000
 O                  7.63700000    4.87800000   13.51500000
 H                  7.80400000    3.93400000   13.79900000
 C                  8.01100000    7.19100000   14.57200000
 O                  8.66900000    7.45500000   15.81900000
 C                  7.96600000    8.57700000   16.37200000
 O                  8.70000000    8.72000000   17.59700000
 C                  8.02000000    8.22200000   18.75900000
 C                  8.71500000    6.91400000   19.09900000
 O                  8.69700000    5.94100000   18.04400000
 H                  9.00300000    6.45300000   17.24200000
 C                  8.32100000    6.54900000   20.52100000
 O                  9.07900000    5.48200000   21.10700000
 H                  8.70900000    5.38300000   22.03100000
 C                  7.64000000   10.61400000   19.60200000
 O                  7.97700000   11.41500000   18.46100000
 H                  7.75800000   12.36200000   18.69300000
 C                  8.27800000    9.25500000   19.84400000
 O                  7.70400000    8.83400000   21.08900000
 C                  8.47000000    7.69500000   21.50900000
 O                  7.83800000    7.32700000   22.74500000
 H                  8.50992623    7.13134626   23.40214135
 H                  9.49789914    7.95119585   21.65962218
 H                  7.29231405    6.25476616   20.50952582
 H                  9.74929141    7.17623772   19.17882893
 H                  6.97437611    8.08420619   18.57849089
 H                  9.33363520    9.37897473   19.96714458
 H                  7.84361128   11.20900238   20.46768737
 H                  6.58225203   10.45642075   19.56681449
 H                  8.38345664    7.75948437   11.52365658
 H                  8.38771374    5.27981535   15.35226291
 H                  9.40531422    5.71911275   14.03090295
 H                  6.95468421    7.23766743   14.73607042
 H                  9.41363503    8.18064363   13.31561261
 H                  6.84789998    9.62988811   13.84079711
 H                  9.26393364   10.04827226   15.54189052
 H                  6.92466012    8.38401301   16.52453614

 1 2 1.0 38 1.0
 2 3 1.0 12 1.0 42 1.0
 3 4 1.0 6 1.0 43 1.0
 4 5 1.0
 5
 6 7 1.0 14 1.0 44 1.0
 7 8 1.0
 8
 9 10 1.0 12 1.0 39 1.0 40 1.0
 10 11 1.0
 11
 12 13 1.0 41 1.0
 13 14 1.0
 14 15 1.0 45 1.0
 15 16 1.0
 16 17 1.0 26 1.0 34 1.0
 17 18 1.0 20 1.0 33 1.0
 18 19 1.0
 19
 20 21 1.0 28 1.0 32 1.0
 21 22 1.0
 22
 23 24 1.0 26 1.0 36 1.0 37 1.0
 24 25 1.0
 25
 26 27 1.0 35 1.0
 27 28 1.0
 28 29 1.0 31 1.0
 29 30 1.0
 30
 31
 32
 33
 34
 35
 36
 37
 38
 39
 40
 41
 42
 43
 44
 45

