# freq=raman b3lyp/6-31+g(2d,p) geom=connectivity

493 7000/7000.com

0 1
O           7.71500         7.90100        12.19800
C           8.35300         8.16500        13.45600
C           7.90000         9.51200        13.99600
O           8.62000        10.44300        13.17400
H           8.68000        10.13000        12.22600
C           8.23700         9.76000        15.45700
O           7.39900        10.84600        15.88000
H           7.66300        10.98000        16.83500
C           8.39500         5.73300        14.38300
O           7.63700         4.87800        13.51500
H           7.80400         3.93400        13.79900
C           8.01100         7.19100        14.57200
O           8.66900         7.45500        15.81900
C           7.96600         8.57700        16.37200
O           8.70000         8.72000        17.59700
C           8.02000         8.22200        18.75900
C           8.71500         6.91400        19.09900
O           8.69700         5.94100        18.04400
H           9.00300         6.45300        17.24200
C           8.32100         6.54900        20.52100
O           9.07900         5.48200        21.10700
H           8.70900         5.38300        22.03100
C           7.64000        10.61400        19.60200
O           7.97700        11.41500        18.46100
H           7.75800        12.36200        18.69300
C           8.27800         9.25500        19.84400
O           7.70400         8.83400        21.08900
C           8.47000         7.69500        21.50900
O           7.83800         7.32700        22.74500

