# freq=raman b3lyp/6-31+g(d,p) geom=connectivity

500 9000.com

0 1
 O                  8.32400000    6.32600000   22.39800000
 C                  9.12100000    6.41100000   23.58900000
 C                  9.00100000    7.77100000   24.25800000
 O                  9.40100000    8.82500000   23.37000000
 H                  9.21500000    8.56100000   22.42300000
 C                  9.83000000    7.82200000   25.53100000
 O                  9.50700000    9.04600000   26.20700000
 H                  9.66100000    9.84100000   25.62100000
 C                  8.69700000    3.96100000   24.05300000
 O                  8.71800000    2.95000000   25.07100000
 H                  8.58800000    2.00000000   24.78800000
 C                  8.75900000    5.36600000   24.63100000
 O                  9.81800000    5.40700000   25.59900000
 C                  9.62500000    6.58700000   26.39300000
 O                 10.53800000    6.50000000   27.49700000
 C                  9.78400000    6.55300000   28.71700000
 C                  9.36100000    5.13500000   29.06500000
 O                  8.52000000    4.36400000   28.19400000
 H                  8.92500000    4.05900000   27.33200000
 C                  8.78300000    5.04000000   30.46800000
 O                  8.74900000    3.69600000   30.97000000
 H                  7.92800000    3.33500000   30.52900000
 C                 11.01300000    8.51600000   29.33900000
 O                  9.90100000    9.39300000   29.10700000
 H                  9.57200000    9.23800000   28.17600000
 C                 10.58500000    7.15400000   29.86000000
 O                  9.87400000    7.06500000   31.10300000
 C                  9.66600000    5.70500000   31.51100000
 O                  8.96300000    6.01700000   32.72300000
 H                  9.59540500    6.19705873   33.42245891
 H                 11.66683911    8.96940018   30.05441785
 H                 11.54497650    8.38258365   28.42025026
 H                 11.47314774    6.56720039   29.96844265
 H                  8.90838012    7.14700667   28.55779604
 H                 10.27940938    4.58740703   29.10457466
 H                  7.80173324    5.46594796   30.49216370
 H                 10.58383628    5.18315022   31.68463573
 H                  8.89914520    6.27128239   21.63130972
 H                  9.53540375    3.81632936   23.40411668
 H                  7.79664512    3.86032634   23.48367943
 H                  7.82741047    5.61538555   25.09451676
 H                 10.14452757    6.26487442   23.31343034
 H                  7.97516009    7.92545114   24.52010174
 H                 10.86230671    7.86101248   25.25221534
 H                  8.62394611    6.59098098   26.77085615

 1 2 1.0 38 1.0
 2 3 1.0 12 1.0 42 1.0
 3 4 1.0 6 1.0 43 1.0
 4 5 1.0
 5
 6 7 1.0 14 1.0 44 1.0
 7 8 1.0
 8
 9 10 1.0 12 1.0 39 1.0 40 1.0
 10 11 1.0
 11
 12 13 1.0 41 1.0
 13 14 1.0
 14 15 1.0 45 1.0
 15 16 1.0
 16 17 1.0 26 1.0 34 1.0
 17 18 1.0 20 1.0 35 1.0
 18 19 1.0
 19
 20 21 1.0 28 1.0 36 1.0
 21 22 1.0
 22
 23 24 1.0 26 1.0 31 1.0 32 1.0
 24 25 1.0
 25
 26 27 1.0 33 1.0
 27 28 1.0
 28 29 1.0 37 1.0
 29 30 1.0
 30
 31
 32
 33
 34
 35
 36
 37
 38
 39
 40
 41
 42
 43
 44
 45

