# freq=raman b3lyp/6-31+g(2d,p) geom=connectivity

450 9892/9892.com

0 1
O          10.72600         8.10900        11.52000
C          11.53800         8.02400        12.70000
C          11.91700         9.32900        13.38200
O          12.62400        10.07800        12.38300
H          12.26400        10.18700        11.45600
C          12.66100         9.23400        14.70400
O          13.09600        10.39900        15.42000
H          13.43300        11.14100        14.84000
C          10.94700         5.69500        13.39700
O          10.02700         4.80600        14.04700
H           9.94700         3.90600        13.61900
C          10.85400         7.16900        13.75400
O          11.33400         7.26300        15.10300
C          11.61900         8.58000        15.59600
O          12.15500         8.33300        16.90400
C          11.29000         8.26500        18.04700
C          10.80800         6.86800        18.40600
O          10.15000         6.15700        17.34800
H          10.47000         6.66700        16.55000
C          10.00100         7.06200        19.67900
O           9.27900         5.82600        19.78800
H           8.35900         5.89800        19.40400
C          12.33300        10.38000        19.04600
O          13.25700        10.75500        20.07800
H          14.22000        10.72200        19.81100
C          12.03000         8.90000        19.21300
O          11.30800         8.85000        20.45200
C          10.96900         7.49300        20.76900
O          10.43700         7.64200        22.09400

