# freq=raman b3lyp/6-31+g(2d,p) geom=connectivity

450 9892/9892.com

0 1
 O                 10.72600000    8.10900000   11.52000000
 C                 11.53800000    8.02400000   12.70000000
 C                 11.91700000    9.32900000   13.38200000
 O                 12.62400000   10.07800000   12.38300000
 H                 12.26400000   10.18700000   11.45600000
 C                 12.66100000    9.23400000   14.70400000
 O                 13.09600000   10.39900000   15.42000000
 H                 13.43300000   11.14100000   14.84000000
 C                 10.94700000    5.69500000   13.39700000
 O                 10.02700000    4.80600000   14.04700000
 H                  9.94700000    3.90600000   13.61900000
 C                 10.85400000    7.16900000   13.75400000
 O                 11.33400000    7.26300000   15.10300000
 C                 11.61900000    8.58000000   15.59600000
 O                 12.15500000    8.33300000   16.90400000
 C                 11.29000000    8.26500000   18.04700000
 C                 10.80800000    6.86800000   18.40600000
 O                 10.15000000    6.15700000   17.34800000
 H                 10.47000000    6.66700000   16.55000000
 C                 10.00100000    7.06200000   19.67900000
 O                  9.27900000    5.82600000   19.78800000
 H                  8.35900000    5.89800000   19.40400000
 C                 12.33300000   10.38000000   19.04600000
 O                 13.25700000   10.75500000   20.07800000
 H                 14.22000000   10.72200000   19.81100000
 C                 12.03000000    8.90000000   19.21300000
 O                 11.30800000    8.85000000   20.45200000
 C                 10.96900000    7.49300000   20.76900000
 O                 10.43700000    7.64200000   22.09400000
 H                 11.15906494    7.71269558   22.72266872
 H                 11.29115109    8.16475515   10.74598733
 H                 11.93889511    5.36432336   13.62436984
 H                 10.80113541    5.60337838   12.34095597
 H                  9.81819610    7.43725172   13.76116197
 H                 12.44728854    7.53142753   12.42528794
 H                 11.00523326    9.85288766   13.57979566
 H                 13.49024939    8.56768671   14.58879563
 H                 10.72898636    9.17150800   15.64979607
 H                 11.84269978    6.87532151   20.77368887
 H                  9.29727078    7.85226933   19.52044538
 H                 11.67340500    6.29614974   18.66860515
 H                 10.42767303    8.86378004   17.84022802
 H                 12.95624446    8.38021642   19.34260024
 H                 12.77126000   10.55454437   18.08560298
 H                 11.43138402   10.94808736   19.14225684

 1 2 1.0 31 1.0
 2 3 1.0 12 1.0 35 1.0
 3 4 1.0 6 1.0 36 1.0
 4 5 1.0
 5
 6 7 1.0 14 1.0 37 1.0
 7 8 1.0
 8
 9 10 1.0 12 1.0 32 1.0 33 1.0
 10 11 1.0
 11
 12 13 1.0 34 1.0
 13 14 1.0
 14 15 1.0 38 1.0
 15 16 1.0
 16 17 1.0 26 1.0 42 1.0
 17 18 1.0 20 1.0 41 1.0
 18 19 1.0
 19
 20 21 1.0 28 1.0 40 1.0
 21 22 1.0
 22
 23 24 1.0 26 1.0 44 1.0 45 1.0
 24 25 1.0
 25
 26 27 1.0 43 1.0
 27 28 1.0
 28 29 1.0 39 1.0
 29 30 1.0
 30
 31
 32
 33
 34
 35
 36
 37
 38
 39
 40
 41
 42
 43
 44
 45

