# freq=raman b3lyp/6-31+g(2df,p) geom=connectivity

320 10000.com

0 1
 O                  8.00800000    7.57400000   12.20500000
 C                  8.51200000    7.99300000   13.48200000
 C                  7.82200000    9.22000000   14.05600000
 O                  7.74600000   10.33100000   13.15100000
 H                  7.36500000    9.83300000   12.37200000
 C                  8.39100000    9.63400000   15.40300000
 O                  7.73500000   10.80000000   15.92100000
 H                  8.14700000   10.94000000   16.82100000
 C                  8.62100000    5.55000000   14.32500000
 O                  8.15300000    4.81600000   13.18400000
 H                  8.20200000    3.82000000   13.25500000
 C                  8.04400000    6.94800000   14.48100000
 O                  8.61500000    7.27200000   15.75700000
 C                  8.22200000    8.49600000   16.39600000
 O                  9.07200000    8.74700000   17.52500000
 C                  8.45400000    8.40300000   18.77300000
 C                  8.89700000    7.05100000   19.30800000
 O                  8.72000000    6.00600000   18.34000000
 H                  8.99200000    6.42900000   17.47600000
 C                  8.19700000    6.69400000   20.60900000
 O                  8.77300000    5.44400000   21.01700000
 H                  8.28800000    5.12400000   21.83100000
 C                  8.44800000   10.84800000   19.73400000
 O                  8.40400000   11.47400000   18.44300000
 H                  8.25700000   12.45400000   18.57900000
 C                  8.85100000    9.38800000   19.86000000
 O                  8.27900000    9.11300000   21.14700000
 C                  8.57200000    7.78300000   21.60000000
 O                  7.71200000    7.59000000   22.73200000
 H                  8.24463470    7.45576519   23.51932541
 H                  8.74310634    7.38151036   11.61834303
 H                  8.38282220    4.98929535   15.20464858
 H                  9.68557888    5.63280584   14.25633410
 H                  6.97594667    6.91868620   14.53846992
 H                  9.57727310    8.09345140   13.48365803
 H                  6.81048527    8.92520048   14.24263116
 H                  9.43401809    9.84405841   15.28947145
 H                  7.20159305    8.43360269   16.71187377
 H                  9.12528384   11.41568987   20.33725352
 H                  7.47357553   10.94493146   20.16527861
 H                  9.91586954    9.34944202   19.95729408
 H                  7.39026569    8.40937287   18.65754997
 H                  9.94420527    7.11864009   19.51701181
 H                  7.13727549    6.62040834   20.48067142
 H                  9.59902763    7.69756423   21.88777591

 1 2 1.0 31 1.0
 2 3 1.0 12 1.0 35 1.0
 3 4 1.0 6 1.0 36 1.0
 4 5 1.0
 5
 6 7 1.0 14 1.0 37 1.0
 7 8 1.0
 8
 9 10 1.0 12 1.0 32 1.0 33 1.0
 10 11 1.0
 11
 12 13 1.0 34 1.0
 13 14 1.0
 14 15 1.0 38 1.0
 15 16 1.0
 16 17 1.0 26 1.0 42 1.0
 17 18 1.0 20 1.0 43 1.0
 18 19 1.0
 19
 20 21 1.0 28 1.0 44 1.0
 21 22 1.0
 22
 23 24 1.0 26 1.0 39 1.0 40 1.0
 24 25 1.0
 25
 26 27 1.0 41 1.0
 27 28 1.0
 28 29 1.0 45 1.0
 29 30 1.0
 30
 31
 32
 33
 34
 35
 36
 37
 38
 39
 40
 41
 42
 43
 44
 45

