# freq=raman b3lyp/6-31+g(2d,p) geom=connectivity

350 6053/6053.com

0 1
 O                  7.77500000    7.96700000   12.21400000
 C                  8.33400000    8.23800000   13.50700000
 C                  7.78900000    9.52200000   14.11100000
 O                  7.66300000   10.55400000   13.12200000
 H                  7.66500000   10.31700000   12.15100000
 C                  8.53700000    9.89400000   15.38100000
 O                  8.27100000   11.15000000   16.02000000
 H                  8.59800000   11.32600000   16.94900000
 C                  8.49000000    5.77500000   14.25800000
 O                  7.63200000    5.06900000   13.35100000
 H                  7.94600000    4.12000000   13.33600000
 C                  7.97900000    7.17900000   14.53800000
 O                  8.59800000    7.49100000   15.79400000
 C                  8.20100000    8.75900000   16.33500000
 O                  8.95500000    8.89200000   17.54900000
 C                  8.30800000    8.43500000   18.74600000
 C                  8.90900000    7.08400000   19.10000000
 O                  8.65000000    5.99000000   18.20800000
 H                  9.15700000    6.15600000   17.36200000
 C                  8.39100000    6.56200000   20.43000000
 O                  8.89000000    5.32700000   20.96300000
 H                  8.82400000    5.43500000   21.95500000
 C                  8.09900000   10.83900000   19.77000000
 O                  8.63700000   11.52600000   18.63100000
 H                  8.38400000   12.49200000   18.69000000
 C                  8.58900000    9.40500000   19.88200000
 O                  7.96200000    8.86400000   21.05400000
 C                  8.52200000    7.62400000   21.51000000
 O                  7.75000000    7.50200000   22.71300000
 H                  8.34067066    7.42564473   23.46591304
 H                  8.48384822    7.83419573   11.58036191
 H                  9.46974274    5.83897791   13.83266367
 H                  8.54431487    5.23359512   15.17932006
 H                  6.91685042    7.15034612   14.66416348
 H                  9.39843437    8.30927298   13.42454006
 H                  6.78984610    9.29726927   14.42097997
 H                  9.58496039    9.85074521   15.16932088
 H                  7.15297378    8.75583948   16.55071060
 H                  8.38016545   11.36895757   20.65599716
 H                  7.03158973   10.83315506   19.69583029
 H                  9.64610894    9.42692929   20.04613349
 H                  7.25385881    8.34294334   18.58721738
 H                  9.96924486    7.20490274   19.17850708
 H                  7.34109226    6.41137763   20.28890913
 H                  9.55390218    7.76368327   21.75610257

 1 2 1.0 31 1.0
 2 3 1.0 12 1.0 35 1.0
 3 4 1.0 6 1.0 36 1.0
 4 5 1.0
 5
 6 7 1.0 14 1.0 37 1.0
 7 8 1.0
 8
 9 10 1.0 12 1.0 32 1.0 33 1.0
 10 11 1.0
 11
 12 13 1.0 34 1.0
 13 14 1.0
 14 15 1.0 38 1.0
 15 16 1.0
 16 17 1.0 26 1.0 42 1.0
 17 18 1.0 20 1.0 43 1.0
 18 19 1.0
 19
 20 21 1.0 28 1.0 44 1.0
 21 22 1.0
 22
 23 24 1.0 26 1.0 39 1.0 40 1.0
 24 25 1.0
 25
 26 27 1.0 41 1.0
 27 28 1.0
 28 29 1.0 45 1.0
 29 30 1.0
 30
 31
 32
 33
 34
 35
 36
 37
 38
 39
 40
 41
 42
 43
 44
 45

