# freq=raman b3lyp/6-31+g(2d,p) geom=connectivity

350 6053/6053.com

0 1
O           7.77500         7.96700        12.21400
C           8.33400         8.23800        13.50700
C           7.78900         9.52200        14.11100
O           7.66300        10.55400        13.12200
H           7.66500        10.31700        12.15100
C           8.53700         9.89400        15.38100
O           8.27100        11.15000        16.02000
H           8.59800        11.32600        16.94900
C           8.49000         5.77500        14.25800
O           7.63200         5.06900        13.35100
H           7.94600         4.12000        13.33600
C           7.97900         7.17900        14.53800
O           8.59800         7.49100        15.79400
C           8.20100         8.75900        16.33500
O           8.95500         8.89200        17.54900
C           8.30800         8.43500        18.74600
C           8.90900         7.08400        19.10000
O           8.65000         5.99000        18.20800
H           9.15700         6.15600        17.36200
C           8.39100         6.56200        20.43000
O           8.89000         5.32700        20.96300
H           8.82400         5.43500        21.95500
C           8.09900        10.83900        19.77000
O           8.63700        11.52600        18.63100
H           8.38400        12.49200        18.69000
C           8.58900         9.40500        19.88200
O           7.96200         8.86400        21.05400
C           8.52200         7.62400        21.51000
O           7.75000         7.50200        22.71300

