# freq=raman b3lyp/6-31+g(2d,p) geom=connectivity

473 5169/5169.com

0 1
O           7.62600         7.68000        12.34700
C           8.27000         8.09500        13.56000
C           7.72800         9.45100        13.98100
O           8.01200        10.48900        13.03200
H           7.59100        10.19300        12.17500
C           8.18800         9.79000        15.39000
O           7.49200        10.93400        15.90700
H           7.71200        11.11800        16.86500
C           8.43900         5.64300        14.26400
O           7.81800         4.94500        13.17500
H           7.96200         3.99200        13.44000
C           7.87800         7.02400        14.56500
O           8.32900         7.34700        15.88800
C           7.90500         8.64100        16.34300
O           8.78000         8.79600        17.47000
C           8.20400         8.46800        18.74300
C           8.62700         7.10700        19.27100
O           8.36700         6.06600        18.31800
H           8.69100         6.31700        17.40600
C           8.05000         6.77100        20.63700
O           8.81400         5.67500        21.16100
H           8.47200         5.26300        22.00600
C           8.07600        10.88100        19.50100
O           8.40900        11.63700        18.32800
H           8.32100        12.61900        18.49500
C           8.54100         9.47200        19.83300
O           7.92100         9.18700        21.09500
C           8.36500         7.91400        21.58700
O           7.50900         7.76200        22.72800

