# freq=raman b3lyp/6-31+g(2d,p) geom=connectivity

473 5169/5169.com

0 1
 O                  7.62600000    7.68000000   12.34700000
 C                  8.27000000    8.09500000   13.56000000
 C                  7.72800000    9.45100000   13.98100000
 O                  8.01200000   10.48900000   13.03200000
 H                  7.59100000   10.19300000   12.17500000
 C                  8.18800000    9.79000000   15.39000000
 O                  7.49200000   10.93400000   15.90700000
 H                  7.71200000   11.11800000   16.86500000
 C                  8.43900000    5.64300000   14.26400000
 O                  7.81800000    4.94500000   13.17500000
 H                  7.96200000    3.99200000   13.44000000
 C                  7.87800000    7.02400000   14.56500000
 O                  8.32900000    7.34700000   15.88800000
 C                  7.90500000    8.64100000   16.34300000
 O                  8.78000000    8.79600000   17.47000000
 C                  8.20400000    8.46800000   18.74300000
 C                  8.62700000    7.10700000   19.27100000
 O                  8.36700000    6.06600000   18.31800000
 H                  8.69100000    6.31700000   17.40600000
 C                  8.05000000    6.77100000   20.63700000
 O                  8.81400000    5.67500000   21.16100000
 H                  8.47200000    5.26300000   22.00600000
 C                  8.07600000   10.88100000   19.50100000
 O                  8.40900000   11.63700000   18.32800000
 H                  8.32100000   12.61900000   18.49500000
 C                  8.54100000    9.47200000   19.83300000
 O                  7.92100000    9.18700000   21.09500000
 C                  8.36500000    7.91400000   21.58700000
 O                  7.50900000    7.76200000   22.72800000
 H                  8.04433046    7.65677177   23.51790399
 H                  8.39157646   11.48492919   20.32597335
 H                  7.00700183   10.83697298   19.51530136
 H                  9.60233954    9.48466344   19.96827016
 H                  7.14055089    8.45724363   18.62527028
 H                  9.68917457    7.14760111   19.39362434
 H                  7.00324592    6.55295683   20.59621913
 H                  9.39764097    7.93199544   21.86669411
 H                  8.29114711    7.45592167   11.69204334
 H                  8.34019705    5.04329246   15.14461844
 H                  9.48084759    5.74669352   14.04331640
 H                  6.81028420    6.95600439   14.58111130
 H                  9.33206227    8.12947427   13.43455971
 H                  6.66289049    9.35674388   14.02046539
 H                  9.23902615    9.99035955   15.37999543
 H                  6.87994719    8.62936714   16.64964543

 1 2 1.0 38 1.0
 2 3 1.0 12 1.0 42 1.0
 3 4 1.0 6 1.0 43 1.0
 4 5 1.0
 5
 6 7 1.0 14 1.0 44 1.0
 7 8 1.0
 8
 9 10 1.0 12 1.0 39 1.0 40 1.0
 10 11 1.0
 11
 12 13 1.0 41 1.0
 13 14 1.0
 14 15 1.0 45 1.0
 15 16 1.0
 16 17 1.0 26 1.0 34 1.0
 17 18 1.0 20 1.0 35 1.0
 18 19 1.0
 19
 20 21 1.0 28 1.0 36 1.0
 21 22 1.0
 22
 23 24 1.0 26 1.0 31 1.0 32 1.0
 24 25 1.0
 25
 26 27 1.0 33 1.0
 27 28 1.0
 28 29 1.0 37 1.0
 29 30 1.0
 30
 31
 32
 33
 34
 35
 36
 37
 38
 39
 40
 41
 42
 43
 44
 45

