# freq=raman b3lyp/6-31+g(2df,p) geom=connectivity

290 7000.com

0 1
 O                  7.55600000    7.41100000   12.34000000
 C                  8.19900000    7.87300000   13.53700000
 C                  7.65100000    9.23600000   13.92700000
 O                  7.82500000   10.29700000   12.97600000
 H                  7.57000000    9.90000000   12.09400000
 C                  8.09200000    9.63400000   15.32600000
 O                  7.32900000   10.75300000   15.80000000
 H                  7.61300000   10.97000000   16.73400000
 C                  8.30600000    5.39300000   14.40400000
 O                  7.63600000    4.58800000   13.42400000
 H                  7.97300000    3.64900000   13.49300000
 C                  7.90000000    6.84300000   14.61400000
 O                  8.56900000    7.24400000   15.81900000
 C                  8.02600000    8.47800000   16.31000000
 O                  8.73700000    8.78200000   17.51900000
 C                  8.25700000    8.38400000   18.81100000
 C                  8.77200000    7.04500000   19.31500000
 O                  8.66800000    5.94900000   18.39400000
 H                  8.70800000    6.35100000   17.47900000
 C                  8.24200000    6.63900000   20.68100000
 O                  8.84500000    5.46200000   21.23800000
 H                  8.30600000    5.26100000   22.05600000
 C                  8.01600000   10.79800000   19.56400000
 O                  8.35500000   11.46400000   18.33900000
 H                  8.02700000   12.40600000   18.41400000
 C                  8.60100000    9.42700000   19.86200000
 O                  8.06100000    9.05300000   21.13700000
 C                  8.48100000    7.78100000   21.65400000
 O                  7.63000000    7.66800000   22.80400000
 H                  8.22180225    7.16197255   11.69479252
 H                  9.25540806    7.93761548   13.37975227
 H                  6.59207906    9.09856887   13.99555021
 H                  6.84627489    6.86281517   14.79885334
 H                  8.19896565    4.89652821   15.34578522
 H                  9.34673838    5.39029189   14.15549186
 H                  6.99858328    8.31343680   16.55946709
 H                  9.11403153    9.94467178   15.26407591
 H                  8.16902994    7.59031721   23.59457708
 H                  9.50865720    7.81660009   21.94989411
 H                  7.18774182    6.47470888   20.60069979
 H                  9.82265577    7.19081976   19.45556692
 H                  7.19051571    8.31960344   18.75299705
 H                  9.66497659    9.50842595   19.94089002
 H                  8.30013796   11.44581788   20.36680609
 H                  6.95070095   10.70080917   19.58832858

 1 2 1.0 30 1.0
 2 3 1.0 12 1.0 31 1.0
 3 4 1.0 6 1.0 32 1.0
 4 5 1.0
 5
 6 7 1.0 14 1.0 37 1.0
 7 8 1.0
 8
 9 10 1.0 12 1.0 34 1.0 35 1.0
 10 11 1.0
 11
 12 13 1.0 33 1.0
 13 14 1.0
 14 15 1.0 36 1.0
 15 16 1.0
 16 17 1.0 26 1.0 42 1.0
 17 18 1.0 20 1.0 41 1.0
 18 19 1.0
 19
 20 21 1.0 28 1.0 40 1.0
 21 22 1.0
 22
 23 24 1.0 26 1.0 44 1.0 45 1.0
 24 25 1.0
 25
 26 27 1.0 43 1.0
 27 28 1.0
 28 29 1.0 39 1.0
 29 38 1.0
 30
 31
 32
 33
 34
 35
 36
 37
 38
 39
 40
 41
 42
 43
 44
 45

