# freq=raman b3lyp/6-31+g(2d,p) geom=connectivity

300 5579/5579.com

0 1
O           7.59700         7.56600        12.21500
C           8.28400         7.93400        13.42000
C           7.87700         9.31100        13.91700
O           7.89000        10.29400        12.87100
H           7.67400         9.85400        11.99900
C           8.22000         9.77200        15.32400
O           7.56500        10.99000        15.70800
H           7.99800        11.39100        16.51500
C           8.61400         5.60500        14.27500
O           8.54300         4.94900        13.00100
H           8.59700         3.95700        13.11300
C           7.95500         6.95100        14.53200
O           8.45500         7.35300        15.81500
C           7.98000         8.62200        16.28800
O           8.74600         8.91200        17.46700
C           8.15100         8.43000        18.68100
C           8.55200         7.03000        19.11700
O           7.89800         6.05700        18.29000
H           8.27400         6.27200        17.38800
C           8.27300         6.55700        20.53500
O           9.00300         5.43700        21.05400
H           8.43800         5.12600        21.81800
C           7.73700        10.80100        19.51600
O           8.40600        11.52100        18.47100
H           8.26200        12.50400        18.58400
C           8.36000         9.44300        19.79500
O           7.76900         9.00200        21.02700
C           8.32700         7.75600        21.46800
O           7.72500         7.50500        22.74600

