# freq=raman b3lyp/6-31+g(2d,p) geom=connectivity

310 9021/9021.com

0 1
 O                  7.31200000    7.51000000   12.28000000
 C                  7.96500000    7.88500000   13.50200000
 C                  7.60700000    9.27100000   14.01100000
 O                  7.90900000   10.23400000   12.99100000
 H                  7.63600000    9.95700000   12.07000000
 C                  8.14200000    9.61900000   15.39100000
 O                  7.49200000   10.81800000   15.83600000
 H                  8.10200000   11.10800000   16.57400000
 C                  8.07000000    5.42600000   14.24700000
 O                  7.64400000    4.67300000   13.10200000
 H                  7.39000000    3.78300000   13.48000000
 C                  7.69300000    6.85800000   14.58900000
 O                  8.34100000    7.17500000   15.82900000
 C                  8.00200000    8.46200000   16.36700000
 O                  8.72500000    8.67400000   17.58800000
 C                  8.19400000    8.49000000   18.90900000
 C                  8.69900000    7.16900000   19.46600000
 O                  8.63200000    6.09400000   18.51900000
 H                  9.08500000    6.29800000   17.65100000
 C                  8.08800000    6.80400000   20.80900000
 O                  8.52100000    5.56900000   21.39900000
 H                  8.30900000    5.52400000   22.37500000
 C                  7.85400000   10.72400000   19.50800000
 O                  8.44300000   11.44000000   18.41300000
 H                  8.23300000   12.39700000   18.61400000
 C                  8.50600000    9.45700000   20.03900000
 O                  7.99200000    9.15900000   21.34500000
 C                  8.49600000    7.89200000   21.79000000
 O                  7.70100000    7.80900000   22.98100000
 H                  8.27699440    7.75560779   23.74714602
 H                  7.78129780   11.40761973   20.32792589
 H                  6.85763247   10.46604361   19.21540773
 H                  9.56446742    9.60149727   20.09955792
 H                  9.54661103    7.91075770   21.99190248
 H                  7.02190365    6.79446339   20.71818361
 H                  9.74119295    7.31868066   19.65660313
 H                  7.12946896    8.42578820   18.82210628
 H                  7.78063668    4.84328839   15.09647987
 H                  9.13949014    5.41092865   14.21761114
 H                  7.97243440    7.30560088   11.61393139
 H                  9.01820179    7.87863639   13.31325281
 H                  6.54149255    9.27684786   14.10877358
 H                  9.18554446    9.83320957   15.29085400
 H                  6.96622333    8.41586199   16.63145788
 H                  6.63879796    6.87006540   14.77179081

 1 2 1.0 40 1.0
 2 3 1.0 12 1.0 41 1.0
 3 4 1.0 6 1.0 42 1.0
 4 5 1.0
 5
 6 7 1.0 14 1.0 43 1.0
 7 8 1.0
 8
 9 10 1.0 12 1.0 38 1.0 39 1.0
 10 11 1.0
 11
 12 13 1.0 45 1.0
 13 14 1.0
 14 15 1.0 44 1.0
 15 16 1.0
 16 17 1.0 26 1.0 37 1.0
 17 18 1.0 20 1.0 36 1.0
 18 19 1.0
 19
 20 21 1.0 28 1.0 35 1.0
 21 22 1.0
 22
 23 24 1.0 26 1.0 31 1.0 32 1.0
 24 25 1.0
 25
 26 27 1.0 33 1.0
 27 28 1.0
 28 29 1.0 34 1.0
 29 30 1.0
 30
 31
 32
 33
 34
 35
 36
 37
 38
 39
 40
 41
 42
 43
 44
 45

