# freq=raman b3lyp/6-31+g(2d,p) geom=connectivity

400 6358/6358.com

0 1
 O                  8.94600000    7.54600000   12.48300000
 C                  9.62400000    7.78000000   13.72600000
 C                  9.13800000    9.13300000   14.21900000
 O                  9.23800000   10.18300000   13.24600000
 H                  9.29500000    9.77500000   12.33500000
 C                  9.77500000    9.45600000   15.56100000
 O                  9.39800000   10.76200000   16.02100000
 H                  9.99200000   10.91300000   16.81100000
 C                  9.52100000    5.34600000   14.41100000
 O                  8.93600000    4.86700000   13.19100000
 H                  8.85500000    3.87200000   13.25600000
 C                  9.29600000    6.78900000   14.83000000
 O                  9.98400000    7.09500000   16.05200000
 C                  9.49700000    8.34600000   16.56100000
 O                 10.39800000    8.56600000   17.65600000
 C                  9.82600000    8.24100000   18.93200000
 C                 10.09000000    6.83700000   19.45300000
 O                  9.94000000    5.82800000   18.44500000
 H                 10.11200000    6.14800000   17.51300000
 C                  9.33000000    6.50800000   20.72800000
 O                  9.69900000    5.23100000   21.27000000
 H                  9.13900000    4.92200000   22.03900000
 C                  9.79100000   10.63200000   19.71800000
 O                 10.22100000   11.31000000   18.52900000
 H                 10.20300000   12.31000000   18.56000000
 C                 10.15300000    9.19800000   20.06600000
 O                  9.39100000    8.85100000   21.23200000
 C                  9.67900000    7.55400000   21.77400000
 O                  8.80600000    7.34900000   22.89500000
 H                  9.32989745    7.20428905   23.68632181
 H                 10.12525244   11.23086580   20.53930084
 H                  8.72193947   10.67677630   19.71583805
 H                 11.19716216    9.13894859   20.29213782
 H                  8.76698706    8.30512135   18.79314737
 H                 11.12508530    6.82144532   19.72365932
 H                  8.27758636    6.52767484   20.53580626
 H                 10.70537192    7.47823228   22.06677965
 H                  9.59253489    7.41471291   11.78560747
 H                  9.15976380    4.72412029   15.20325882
 H                 10.57797838    5.19658146   14.33771420
 H                  8.25021105    6.89041318   15.03233844
 H                 10.68137176    7.80979539   13.56482557
 H                  8.09211999    9.01587210   14.41217367
 H                 10.83358614    9.47601199   15.40642023
 H                  8.47320032    8.30217936   16.86891877

 1 2 1.0 38 1.0
 2 3 1.0 12 1.0 42 1.0
 3 4 1.0 6 1.0 43 1.0
 4 5 1.0
 5
 6 7 1.0 14 1.0 44 1.0
 7 8 1.0
 8
 9 10 1.0 12 1.0 39 1.0 40 1.0
 10 11 1.0
 11
 12 13 1.0 41 1.0
 13 14 1.0
 14 15 1.0 45 1.0
 15 16 1.0
 16 17 1.0 26 1.0 34 1.0
 17 18 1.0 20 1.0 35 1.0
 18 19 1.0
 19
 20 21 1.0 28 1.0 36 1.0
 21 22 1.0
 22
 23 24 1.0 26 1.0 31 1.0 32 1.0
 24 25 1.0
 25
 26 27 1.0 33 1.0
 27 28 1.0
 28 29 1.0 37 1.0
 29 30 1.0
 30
 31
 32
 33
 34
 35
 36
 37
 38
 39
 40
 41
 42
 43
 44
 45

