# freq=raman b3lyp/6-31+g(2d,p) geom=connectivity
290 9000.com
290 9000.com
C           8.17300         8.06900         3.05500
0 1
O           8.56100        10.37100        23.79200
H           8.59600        10.15500        22.81600
C           8.40000         9.66700        25.98200
O           7.74400        10.84200        26.48100
H           8.06500        11.00100        27.41500
C           8.35200         5.46900        24.99900
O           7.96500         4.89000        23.74400
H           7.88000         3.90300        23.88000
C           8.08300         6.95100        25.20200
O           8.79300         7.28300        26.40400
C           8.19200         8.48300        26.91200
O           8.89900         8.73900        28.13400
C           8.35600         8.33600        29.40000
C           8.74100         6.98300        29.97600
O           8.54900         6.00900        28.94000
H           8.91200         6.42200        28.10500
C           8.06300         6.66600        31.29900
O           8.27700         5.33600        31.79200
H           7.87900         5.23600        32.70400
C           8.20500        10.87300        30.08700
O           8.77000        11.48000        28.91500
H           8.65400        12.46800        29.01200
C           8.58900         9.44100        30.41800
O           8.06900         9.06900        31.70300
C           8.47500         7.79700        32.22800
O           7.54800         7.65800        33.31500
C           7.92900         8.06700        34.63600
C           7.39700         9.44100        35.00900
O           7.79100        10.47100        34.09100

