# freq=raman b3lyp/6-31+g(2d,p) geom=connectivity

300 8372/8372.com

0 1
O           7.72300         7.58500        12.29100
C           8.25500         8.02300        13.55000
C           7.77100         9.39000        14.00400
O           8.12900        10.49900        13.16700
H           7.89300        10.35000        12.20600
C           8.35000         9.56400        15.39900
O           7.91700        10.85200        15.86100
H           8.34600        11.12300        16.72300
C           8.55800         5.64100        14.40100
O           8.05600         4.89200        13.28400
H           8.07300         3.93800        13.58100
C           7.93300         7.00700        14.63400
O           8.42500         7.25700        15.95800
C           7.98500         8.53100        16.45300
O           8.72600         8.63400        17.67700
C           7.97900         8.20000        18.82300
C           8.57500         6.87500        19.27000
O           8.51400         5.86300        18.25500
H           8.83000         6.34700        17.43900
C           8.08400         6.46600        20.65000
O           8.78700         5.28500        21.05900
H           8.28700         4.90400        21.83700
C           7.89700        10.74300        19.60900
O           8.32400        11.40500        18.40900
H           8.27400        12.38400        18.60400
C           8.26000         9.28700        19.84700
O           7.66600         8.88300        21.09000
C           8.17200         7.64400        21.60700
O           7.21200         7.48700        22.66100

