# freq=raman b3lyp/6-31+g(2d,p) geom=connectivity

300 8372/8372.com

0 1
 O                  7.72300000    7.58500000   12.29100000
 C                  8.25500000    8.02300000   13.55000000
 C                  7.77100000    9.39000000   14.00400000
 O                  8.12900000   10.49900000   13.16700000
 H                  7.89300000   10.35000000   12.20600000
 C                  8.35000000    9.56400000   15.39900000
 O                  7.91700000   10.85200000   15.86100000
 H                  8.34600000   11.12300000   16.72300000
 C                  8.55800000    5.64100000   14.40100000
 O                  8.05600000    4.89200000   13.28400000
 H                  8.07300000    3.93800000   13.58100000
 C                  7.93300000    7.00700000   14.63400000
 O                  8.42500000    7.25700000   15.95800000
 C                  7.98500000    8.53100000   16.45300000
 O                  8.72600000    8.63400000   17.67700000
 C                  7.97900000    8.20000000   18.82300000
 C                  8.57500000    6.87500000   19.27000000
 O                  8.51400000    5.86300000   18.25500000
 H                  8.83000000    6.34700000   17.43900000
 C                  8.08400000    6.46600000   20.65000000
 O                  8.78700000    5.28500000   21.05900000
 H                  8.28700000    4.90400000   21.83700000
 C                  7.89700000   10.74300000   19.60900000
 O                  8.32400000   11.40500000   18.40900000
 H                  8.27400000   12.38400000   18.60400000
 C                  8.26000000    9.28700000   19.84700000
 O                  7.66600000    8.88300000   21.09000000
 C                  8.17200000    7.64400000   21.60700000
 O                  7.21200000    7.48700000   22.66100000
 H                  7.67027611    7.36271851   23.49534832
 H                  8.44500974    7.37711009   11.69343517
 H                  8.41206975    5.05532836   15.28451179
 H                  9.61001029    5.77791175   14.26161017
 H                  6.87035309    6.89164427   14.68272981
 H                  9.31952757    8.07103150   13.45318040
 H                  6.70429080    9.36007348   14.08233194
 H                  9.41635337    9.58293005   15.31279012
 H                  6.93147862    8.52487649   16.63996309
 H                  8.28434211   11.30381121   20.43383748
 H                  6.82985485   10.81226193   19.64511107
 H                  9.31883810    9.27372075   20.00057587
 H                  6.93437954    8.11664398   18.60685219
 H                  9.61918184    7.07052363   19.39788590
 H                  7.04999609    6.20620391   20.55921504
 H                  9.16086054    7.76033965   21.99881619

 1 2 1.0 31 1.0
 2 3 1.0 12 1.0 35 1.0
 3 4 1.0 6 1.0 36 1.0
 4 5 1.0
 5
 6 7 1.0 14 1.0 37 1.0
 7 8 1.0
 8
 9 10 1.0 12 1.0 32 1.0 33 1.0
 10 11 1.0
 11
 12 13 1.0 34 1.0
 13 14 1.0
 14 15 1.0 38 1.0
 15 16 1.0
 16 17 1.0 26 1.0 42 1.0
 17 18 1.0 20 1.0 43 1.0
 18 19 1.0
 19
 20 21 1.0 28 1.0 44 1.0
 21 22 1.0
 22
 23 24 1.0 26 1.0 39 1.0 40 1.0
 24 25 1.0
 25
 26 27 1.0 41 1.0
 27 28 1.0
 28 29 1.0 45 1.0
 29 30 1.0
 30
 31
 32
 33
 34
 35
 36
 37
 38
 39
 40
 41
 42
 43
 44
 45

