# freq=raman b3lyp/6-31+g(2d,p) geom=connectivity

500 8883/8883.com

0 1
 O                  8.32600000    7.17500000   12.13600000
 C                  9.08300000    7.41400000   13.33200000
 C                  8.69600000    8.80300000   13.81200000
 O                  9.27000000    9.84500000   13.01000000
 H                  9.30500000    9.45500000   12.09000000
 C                  9.08900000    9.04000000   15.26100000
 O                  8.61200000   10.21600000   15.93100000
 H                  9.17200000   10.99700000   15.65400000
 C                  9.43100000    4.95800000   13.90400000
 O                  9.47900000    3.90100000   14.87300000
 H                  9.88800000    3.05600000   14.52900000
 C                  8.95100000    6.32000000   14.37900000
 O                  9.59100000    6.80500000   15.56800000
 C                  8.86200000    7.86700000   16.20200000
 O                  9.68500000    7.78800000   17.37500000
 C                  8.93000000    7.40900000   18.53400000
 C                  9.27300000    5.96200000   18.84800000
 O                  8.82400000    5.13000000   17.76800000
 H                  9.37200000    5.49200000   17.01300000
 C                  8.41300000    5.52600000   20.02300000
 O                  8.57900000    4.10400000   20.11200000
 H                  8.30200000    3.79000000   19.20500000
 C                  9.16600000    9.72600000   19.52700000
 O                  9.43900000   10.31900000   20.80500000
 H                  9.33200000   11.30700000   20.69400000
 C                  9.34000000    8.23200000   19.74500000
 O                  8.65700000    7.71300000   20.89600000
 C                  8.85200000    6.33200000   21.23500000
 O                  8.27000000    6.02400000   22.50900000
 H                  8.96734814    5.86895997   23.15030193
 H                  9.90648014    6.18223997   21.33768189
 H                  7.38809611    5.74623961   19.80860195
 H                 10.31611672    5.83043669   19.04674257
 H                  7.88133615    7.51265181   18.34836479
 H                 10.38496285    8.06155051   19.89959496
 H                  9.86321180   10.07920640   18.79621895
 H                  8.16361868    9.94343110   19.22227817
 H                  8.92626005    7.02818959   11.40133370
 H                 10.41586090    5.07969265   13.50382515
 H                  8.78772535    4.64365313   13.10883726
 H                  7.90899095    6.22167847   14.60137362
 H                 10.11452507    7.45344285   13.05039693
 H                  7.63144636    8.88647001   13.74374819
 H                 10.15152866    9.16163885   15.22728293
 H                  7.83391345    7.62315685   16.37075590

 1 2 1.0 38 1.0
 2 3 1.0 12 1.0 42 1.0
 3 4 1.0 6 1.0 43 1.0
 4 5 1.0
 5
 6 7 1.0 14 1.0 44 1.0
 7 8 1.0
 8
 9 10 1.0 12 1.0 39 1.0 40 1.0
 10 11 1.0
 11
 12 13 1.0 41 1.0
 13 14 1.0
 14 15 1.0 45 1.0
 15 16 1.0
 16 17 1.0 26 1.0 34 1.0
 17 18 1.0 20 1.0 33 1.0
 18 19 1.0
 19
 20 21 1.0 28 1.0 32 1.0
 21 22 1.0
 22
 23 24 1.0 26 1.0 36 1.0 37 1.0
 24 25 1.0
 25
 26 27 1.0 35 1.0
 27 28 1.0
 28 29 1.0 31 1.0
 29 30 1.0
 30
 31
 32
 33
 34
 35
 36
 37
 38
 39
 40
 41
 42
 43
 44
 45

