# freq=raman b3lyp/6-31+g(2d,p) geom=connectivity

280 6354/6354.com

0 1
 O                  7.62400000    7.48500000   12.22700000
 C                  8.23400000    7.77700000   13.49300000
 C                  7.71600000    9.11700000   13.98900000
 O                  7.98700000   10.12100000   13.00000000
 H                  7.90600000    9.69500000   12.09900000
 C                  8.18700000    9.58000000   15.35800000
 O                  7.66700000   10.84300000   15.79700000
 H                  7.86500000   10.98900000   16.76700000
 C                  8.17400000    5.38000000   14.25100000
 O                  7.74200000    4.70800000   13.05900000
 H                  7.90200000    3.72300000   13.13300000
 C                  7.80100000    6.81500000   14.58700000
 O                  8.37400000    7.22800000   15.83600000
 C                  7.85600000    8.46700000   16.34000000
 O                  8.66000000    8.61400000   17.52000000
 C                  8.04400000    8.31500000   18.78100000
 C                  8.48300000    6.92600000   19.21200000
 O                  8.13400000    5.85700000   18.32000000
 H                  8.20600000    6.19900000   17.38300000
 C                  7.87900000    6.71700000   20.59100000
 O                  8.44000000    5.54400000   21.19800000
 H                  7.86800000    5.31900000   21.98700000
 C                  7.79200000   10.80800000   19.43200000
 O                  8.15900000   11.55900000   18.26600000
 H                  7.84200000   12.50800000   18.26600000
 C                  8.31700000    9.42500000   19.78300000
 O                  7.66300000    9.17400000   21.03600000
 C                  8.08400000    7.89400000   21.53000000
 O                  7.34800000    7.73800000   22.75100000
 H                  7.96060526    7.64432701   23.48417131
 H                  8.02508543   11.43221751   20.26921185
 H                  6.72618328   10.71875565   19.40085255
 H                  9.37217207    9.48755346   19.94912936
 H                  6.98630958    8.28129348   18.62271277
 H                  9.54806847    6.93356941   19.31433212
 H                  6.82665249    6.56272103   20.47411240
 H                  9.12521542    7.95256278   21.76945948
 H                  8.30729140    7.33344765   11.56992714
 H                  7.83938527    4.78148160   15.07240654
 H                  9.24321722    5.33911583   14.24926425
 H                  6.73603886    6.86928146   14.67538158
 H                  9.30025696    7.79434309   13.40527707
 H                  6.65165614    9.02606222   14.05066411
 H                  9.25250070    9.66949839   15.31802132
 H                  6.81112250    8.41043814   16.56345417

 1 2 1.0 38 1.0
 2 3 1.0 12 1.0 42 1.0
 3 4 1.0 6 1.0 43 1.0
 4 5 1.0
 5
 6 7 1.0 14 1.0 44 1.0
 7 8 1.0
 8
 9 10 1.0 12 1.0 39 1.0 40 1.0
 10 11 1.0
 11
 12 13 1.0 41 1.0
 13 14 1.0
 14 15 1.0 45 1.0
 15 16 1.0
 16 17 1.0 26 1.0 34 1.0
 17 18 1.0 20 1.0 35 1.0
 18 19 1.0
 19
 20 21 1.0 28 1.0 36 1.0
 21 22 1.0
 22
 23 24 1.0 26 1.0 31 1.0 32 1.0
 24 25 1.0
 25
 26 27 1.0 33 1.0
 27 28 1.0
 28 29 1.0 37 1.0
 29 30 1.0
 30
 31
 32
 33
 34
 35
 36
 37
 38
 39
 40
 41
 42
 43
 44
 45

