# freq=raman b3lyp/6-31+g(2d,p) geom=connectivity

280 6354/6354.com

0 1
O           7.62400         7.48500        12.22700
C           8.23400         7.77700        13.49300
C           7.71600         9.11700        13.98900
O           7.98700        10.12100        13.00000
H           7.90600         9.69500        12.09900
C           8.18700         9.58000        15.35800
O           7.66700        10.84300        15.79700
H           7.86500        10.98900        16.76700
C           8.17400         5.38000        14.25100
O           7.74200         4.70800        13.05900
H           7.90200         3.72300        13.13300
C           7.80100         6.81500        14.58700
O           8.37400         7.22800        15.83600
C           7.85600         8.46700        16.34000
O           8.66000         8.61400        17.52000
C           8.04400         8.31500        18.78100
C           8.48300         6.92600        19.21200
O           8.13400         5.85700        18.32000
H           8.20600         6.19900        17.38300
C           7.87900         6.71700        20.59100
O           8.44000         5.54400        21.19800
H           7.86800         5.31900        21.98700
C           7.79200        10.80800        19.43200
O           8.15900        11.55900        18.26600
H           7.84200        12.50800        18.26600
C           8.31700         9.42500        19.78300
O           7.66300         9.17400        21.03600
C           8.08400         7.89400        21.53000
O           7.34800         7.73800        22.75100

