# freq=raman b3lyp/6-31+g(2d,p) geom=connectivity

550 6233/6233.com

0 1
 O                  9.36800000    7.68800000   11.21200000
 C                 10.18600000    7.52900000   12.38000000
 C                 10.33400000    8.94400000   12.91800000
 O                 11.20100000    9.64200000   12.01300000
 H                 11.03000000    9.42900000   11.05000000
 C                 10.86700000    9.06600000   14.33600000
 O                 11.01500000   10.33500000   14.99000000
 H                 11.44600000   10.97800000   14.35800000
 C                  9.12500000    5.33500000   13.21700000
 O                  8.51700000    4.30100000   14.00300000
 H                  8.21200000    3.44900000   13.57700000
 C                  9.43500000    6.80000000   13.48200000
 O                 10.18900000    6.91800000   14.69700000
 C                 10.16900000    8.19000000   15.36300000
 O                 11.03900000    7.80000000   16.43500000
 C                 10.52600000    7.63200000   17.76400000
 C                  9.91400000    6.31300000   18.20900000
 O                  9.51000000    5.55500000   17.06000000
 H                  9.75000000    6.11400000   16.26600000
 C                  9.03400000    6.51200000   19.43200000
 O                  8.25500000    5.35600000   19.77100000
 H                  7.48400000    5.32900000   19.13400000
 C                 12.02900000    9.49700000   18.53600000
 O                 11.19400000   10.56900000   18.07500000
 H                 10.85500000   10.41800000   17.14600000
 C                 11.54000000    8.08300000   18.80200000
 O                 10.75600000    8.13700000   20.00300000
 C                 10.03700000    6.98700000   20.47100000
 O                  9.24700000    7.37900000   21.60300000
 H                  9.82642123    7.62946544   22.32628286
 H                 10.71112320    6.19909330   20.73493360
 H                  8.35851325    7.31677019   19.22960784
 H                 10.74310118    5.75559346   18.59213075
 H                  9.72406424    8.33710308   17.83203440
 H                 12.35097525    7.39077136   18.89165849
 H                 12.82100106    9.40856781   17.82198734
 H                 12.47090541    9.83583970   19.44967788
 H                  9.92915663    7.79306431   10.44020681
 H                  8.53792289    5.35533723   12.32266960
 H                 10.07033661    4.92019839   12.93561359
 H                  8.50320790    7.30567642   13.62675785
 H                 11.13136036    7.07841662   12.16052698
 H                  9.37249391    9.41235360   12.88558171
 H                 11.86251599    8.67886094   14.27298201
 H                  9.19326375    8.51316165   15.66033030

 1 2 1.0 38 1.0
 2 3 1.0 12 1.0 42 1.0
 3 4 1.0 6 1.0 43 1.0
 4 5 1.0
 5
 6 7 1.0 14 1.0 44 1.0
 7 8 1.0
 8
 9 10 1.0 12 1.0 39 1.0 40 1.0
 10 11 1.0
 11
 12 13 1.0 41 1.0
 13 14 1.0
 14 15 1.0 45 1.0
 15 16 1.0
 16 17 1.0 26 1.0 34 1.0
 17 18 1.0 20 1.0 33 1.0
 18 19 1.0
 19
 20 21 1.0 28 1.0 32 1.0
 21 22 1.0
 22
 23 24 1.0 26 1.0 36 1.0 37 1.0
 24 25 1.0
 25
 26 27 1.0 35 1.0
 27 28 1.0
 28 29 1.0 31 1.0
 29 30 1.0
 30
 31
 32
 33
 34
 35
 36
 37
 38
 39
 40
 41
 42
 43
 44
 45

