# freq=raman b3lyp/6-31+g(2d,p) geom=connectivity

550 6233/6233.com

0 1
O           9.36800         7.68800        11.21200
C          10.18600         7.52900        12.38000
C          10.33400         8.94400        12.91800
O          11.20100         9.64200        12.01300
H          11.03000         9.42900        11.05000
C          10.86700         9.06600        14.33600
O          11.01500        10.33500        14.99000
H          11.44600        10.97800        14.35800
C           9.12500         5.33500        13.21700
O           8.51700         4.30100        14.00300
H           8.21200         3.44900        13.57700
C           9.43500         6.80000        13.48200
O          10.18900         6.91800        14.69700
C          10.16900         8.19000        15.36300
O          11.03900         7.80000        16.43500
C          10.52600         7.63200        17.76400
C           9.91400         6.31300        18.20900
O           9.51000         5.55500        17.06000
H           9.75000         6.11400        16.26600
C           9.03400         6.51200        19.43200
O           8.25500         5.35600        19.77100
H           7.48400         5.32900        19.13400
C          12.02900         9.49700        18.53600
O          11.19400        10.56900        18.07500
H          10.85500        10.41800        17.14600
C          11.54000         8.08300        18.80200
O          10.75600         8.13700        20.00300
C          10.03700         6.98700        20.47100
O           9.24700         7.37900        21.60300

