# freq=raman b3lyp/6-31+g(2d,p) geom=connectivity

320 5683/5683.com

0 1
 O                  7.58800000    7.68800000   12.38500000
 C                  8.30500000    7.96200000   13.59700000
 C                  7.82600000    9.31500000   14.09900000
 O                  7.90500000   10.39800000   13.16100000
 H                  7.76700000   10.05200000   12.23300000
 C                  8.55000000    9.64500000   15.39400000
 O                  8.18300000   10.97100000   15.79900000
 H                  8.33000000   11.20300000   16.76100000
 C                  8.75800000    5.58700000   14.21300000
 O                  8.17700000    4.77800000   13.18000000
 H                  8.30600000    3.81600000   13.42100000
 C                  8.08600000    6.88100000   14.64300000
 O                  8.78500000    7.30500000   15.82200000
 C                  8.28400000    8.52600000   16.38700000
 O                  9.02300000    8.76200000   17.59400000
 C                  8.33200000    8.41800000   18.80400000
 C                  8.88700000    7.10000000   19.31800000
 O                  8.70800000    6.01000000   18.40300000
 H                  9.02100000    6.28400000   17.49300000
 C                  8.54600000    6.85400000   20.77900000
 O                  9.17500000    5.70400000   21.36300000
 H                  8.58600000    5.47100000   22.13700000
 C                  8.03200000   10.89500000   19.40000000
 O                  8.52100000   11.62100000   18.26300000
 H                  8.59500000   12.61000000   18.39200000
 C                  8.62200000    9.54700000   19.78000000
 O                  8.07400000    9.24500000   21.07100000
 C                  8.50700000    8.04300000   21.72500000
 O                  7.56700000    8.00300000   22.80800000
 H                  8.04105974    7.97218866   23.64221701
 H                  8.14281557   11.53506922   20.25025367
 H                  6.98364581   10.74496265   19.24721816
 H                  9.68263680    9.65240241   19.87402081
 H                  7.28014880    8.33821107   18.62471591
 H                  9.94620233    7.25137653   19.32669336
 H                  7.51764730    6.56265194   20.72892962
 H                  9.48772811    8.19878652   22.12350086
 H                  8.21201614    7.52713443   11.67343403
 H                  8.84332279    4.97179902   15.08429087
 H                  9.74937692    5.83677967   13.89727558
 H                  7.04477473    6.73335105   14.84035683
 H                  9.35005459    8.02376297   13.37576202
 H                  6.79094989    9.20063855   14.34495270
 H                  9.59995853    9.65013412   15.18793999
 H                  7.23739355    8.44473663   16.59415018

 1 2 1.0 38 1.0
 2 3 1.0 12 1.0 42 1.0
 3 4 1.0 6 1.0 43 1.0
 4 5 1.0
 5
 6 7 1.0 14 1.0 44 1.0
 7 8 1.0
 8
 9 10 1.0 12 1.0 39 1.0 40 1.0
 10 11 1.0
 11
 12 13 1.0 41 1.0
 13 14 1.0
 14 15 1.0 45 1.0
 15 16 1.0
 16 17 1.0 26 1.0 34 1.0
 17 18 1.0 20 1.0 35 1.0
 18 19 1.0
 19
 20 21 1.0 28 1.0 36 1.0
 21 22 1.0
 22
 23 24 1.0 26 1.0 31 1.0 32 1.0
 24 25 1.0
 25
 26 27 1.0 33 1.0
 27 28 1.0
 28 29 1.0 37 1.0
 29 30 1.0
 30
 31
 32
 33
 34
 35
 36
 37
 38
 39
 40
 41
 42
 43
 44
 45

