# freq=raman b3lyp/6-31+g(2d,p) geom=connectivity

320 5683/5683.com

0 1
O           7.58800         7.68800        12.38500
C           8.30500         7.96200        13.59700
C           7.82600         9.31500        14.09900
O           7.90500        10.39800        13.16100
H           7.76700        10.05200        12.23300
C           8.55000         9.64500        15.39400
O           8.18300        10.97100        15.79900
H           8.33000        11.20300        16.76100
C           8.75800         5.58700        14.21300
O           8.17700         4.77800        13.18000
H           8.30600         3.81600        13.42100
C           8.08600         6.88100        14.64300
O           8.78500         7.30500        15.82200
C           8.28400         8.52600        16.38700
O           9.02300         8.76200        17.59400
C           8.33200         8.41800        18.80400
C           8.88700         7.10000        19.31800
O           8.70800         6.01000        18.40300
H           9.02100         6.28400        17.49300
C           8.54600         6.85400        20.77900
O           9.17500         5.70400        21.36300
H           8.58600         5.47100        22.13700
C           8.03200        10.89500        19.40000
O           8.52100        11.62100        18.26300
H           8.59500        12.61000        18.39200
C           8.62200         9.54700        19.78000
O           8.07400         9.24500        21.07100
C           8.50700         8.04300        21.72500
O           7.56700         8.00300        22.80800

