# freq=raman b3lyp/6-31+g(d,p) geom=connectivity

550 6000.com

0 1
 O                  9.37700000    7.10900000   21.51800000
 C                 10.16600000    7.05400000   22.71500000
 C                 10.10700000    8.40000000   23.41900000
 O                 10.91000000    9.29700000   22.63800000
 H                 10.80400000    9.06700000   21.67100000
 C                 10.90400000    8.58100000   24.70100000
 O                 10.69000000    9.80200000   25.42300000
 H                 10.71800000   10.50300000   24.71000000
 C                  9.68400000    4.65600000   23.11700000
 O                  9.18400000    3.65200000   24.01200000
 H                  9.03800000    2.75700000   23.58900000
 C                  9.81200000    6.02100000   23.77300000
 O                 10.60300000    6.17400000   24.96000000
 C                 10.55800000    7.43700000   25.64100000
 O                 11.10100000    7.24900000   26.95600000
 C                 10.30300000    7.36600000   28.14300000
 C                  9.74200000    5.97400000   28.38200000
 O                  8.85900000    5.46000000   27.37400000
 H                  9.53900000    5.38300000   26.64500000
 C                  9.07000000    5.92900000   29.74400000
 O                  8.69900000    4.59700000   30.12900000
 H                  7.81300000    4.34800000   29.73600000
 C                 11.48000000    9.30300000   29.16300000
 O                 12.16900000    9.80900000   30.31500000
 H                 12.21800000   10.80000000   30.19300000
 C                 11.30100000    7.79400000   29.20600000
 O                 10.62600000    7.69400000   30.46900000
 C                 10.16000000    6.35900000   30.71200000
 O                  9.49800000    6.57600000   31.96600000
 H                 10.15328486    6.69562632   32.65729682
 H                 10.95671472    5.64885008   30.78837245
 H                  8.23257498    6.59371397   29.78612687
 H                 10.57871047    5.30848650   28.42567352
 H                  9.52429721    8.08939679   28.01963447
 H                 12.22428634    7.25405617   29.17595013
 H                 12.03751590    9.55987482   28.28659179
 H                 10.51590294    9.76375204   29.10710347
 H                  9.95695791    7.14411404   20.75379072
 H                 10.64691529    4.35263335   22.76251049
 H                  9.01870146    4.73586087   22.28279374
 H                  8.81718401    6.26725447   24.08057093
 H                 11.18101250    6.88216823   22.42324073
 H                  9.10415070    8.75959454   23.51842358
 H                 11.94417197    8.51433407   24.45913657
 H                  9.51659913    7.59290314   25.83094326

 1 2 1.0 38 1.0
 2 3 1.0 12 1.0 42 1.0
 3 4 1.0 6 1.0 43 1.0
 4 5 1.0
 5
 6 7 1.0 14 1.0 44 1.0
 7 8 1.0
 8
 9 10 1.0 12 1.0 39 1.0 40 1.0
 10 11 1.0
 11
 12 13 1.0 41 1.0
 13 14 1.0
 14 15 1.0 45 1.0
 15 16 1.0
 16 17 1.0 26 1.0 34 1.0
 17 18 1.0 20 1.0 33 1.0
 18 19 1.0
 19
 20 21 1.0 28 1.0 32 1.0
 21 22 1.0
 22
 23 24 1.0 26 1.0 36 1.0 37 1.0
 24 25 1.0
 25
 26 27 1.0 35 1.0
 27 28 1.0
 28 29 1.0 31 1.0
 29 30 1.0
 30
 31
 32
 33
 34
 35
 36
 37
 38
 39
 40
 41
 42
 43
 44
 45

