# freq=raman b3lyp/6-31+g(2d,p) geom=connectivity

300 5527/5527.com

0 1
O           7.82000         7.76900        12.27400
C           8.37300         8.10800        13.55300
C           7.90600         9.46100        14.06400
O           8.25000        10.45700        13.09000
H           8.23400        10.02100        12.19000
C           8.45800         9.85700        15.42400
O           7.78400        10.97700        16.01500
H           8.03000        11.24700        16.94600
C           8.72700         5.75600        14.21000
O           8.22900         4.92300        13.15200
H           8.53100         3.97400        13.24100
C           8.02900         7.05100        14.59100
O           8.65700         7.39700        15.83400
C           8.23800         8.67000        16.34800
O           8.71200         8.90900        17.68100
C           8.09900         8.48500        18.90700
C           8.87900         7.30700        19.46700
O           8.94900         6.20900        18.54700
H           9.37600         6.53800        17.70400
C           8.26400         6.91200        20.80000
O           8.69200         5.65400        21.34300
H           8.06300         5.32200        22.04600
C           7.85900        10.99500        19.67100
O           8.39900        11.54300        18.46000
H           8.36600        12.53600        18.57600
C           8.34300         9.57900        19.93400
O           7.64800         9.19600        21.13000
C           8.23500         8.06500        21.79000
O           7.38800         7.75700        22.90600

