# freq=raman b3lyp/6-31+g(2d,p) geom=connectivity

300 5527/5527.com

0 1
 O                  7.82000000    7.76900000   12.27400000
 C                  8.37300000    8.10800000   13.55300000
 C                  7.90600000    9.46100000   14.06400000
 O                  8.25000000   10.45700000   13.09000000
 H                  8.23400000   10.02100000   12.19000000
 C                  8.45800000    9.85700000   15.42400000
 O                  7.78400000   10.97700000   16.01500000
 H                  8.03000000   11.24700000   16.94600000
 C                  8.72700000    5.75600000   14.21000000
 O                  8.22900000    4.92300000   13.15200000
 H                  8.53100000    3.97400000   13.24100000
 C                  8.02900000    7.05100000   14.59100000
 O                  8.65700000    7.39700000   15.83400000
 C                  8.23800000    8.67000000   16.34800000
 O                  8.71200000    8.90900000   17.68100000
 C                  8.09900000    8.48500000   18.90700000
 C                  8.87900000    7.30700000   19.46700000
 O                  8.94900000    6.20900000   18.54700000
 H                  9.37600000    6.53800000   17.70400000
 C                  8.26400000    6.91200000   20.80000000
 O                  8.69200000    5.65400000   21.34300000
 H                  8.06300000    5.32200000   22.04600000
 C                  7.85900000   10.99500000   19.67100000
 O                  8.39900000   11.54300000   18.46000000
 H                  8.36600000   12.53600000   18.57600000
 C                  8.34300000    9.57900000   19.93400000
 O                  7.64800000    9.19600000   21.13000000
 C                  8.23500000    8.06500000   21.79000000
 O                  7.38800000    7.75700000   22.90600000
 H                  7.92952793    7.54611465   23.67011705
 H                  8.14872463   11.61752783   20.49162095
 H                  6.79127795   10.98822441   19.60154706
 H                  9.39125944    9.61458203   20.14562719
 H                  7.05860851    8.26450961   18.78923104
 H                  9.87918749    7.63768397   19.65454493
 H                  7.23262598    6.74836313   20.56678205
 H                  9.22459245    8.29829169   22.12343929
 H                  8.53169990    7.60393548   11.65123443
 H                  8.76169815    5.15077777   15.09170408
 H                  9.73542293    6.00933290   13.95740222
 H                  6.97257621    6.91966560   14.69879635
 H                  9.43788966    8.14127993   13.45399264
 H                  6.83918598    9.43095751   14.14084589
 H                  9.50462947   10.06455706   15.34408244
 H                  7.17517275    8.59046678   16.44272434

 1 2 1.0 38 1.0
 2 3 1.0 12 1.0 42 1.0
 3 4 1.0 6 1.0 43 1.0
 4 5 1.0
 5
 6 7 1.0 14 1.0 44 1.0
 7 8 1.0
 8
 9 10 1.0 12 1.0 39 1.0 40 1.0
 10 11 1.0
 11
 12 13 1.0 41 1.0
 13 14 1.0
 14 15 1.0 45 1.0
 15 16 1.0
 16 17 1.0 26 1.0 34 1.0
 17 18 1.0 20 1.0 35 1.0
 18 19 1.0
 19
 20 21 1.0 28 1.0 36 1.0
 21 22 1.0
 22
 23 24 1.0 26 1.0 31 1.0 32 1.0
 24 25 1.0
 25
 26 27 1.0 33 1.0
 27 28 1.0
 28 29 1.0 37 1.0
 29 30 1.0
 30
 31
 32
 33
 34
 35
 36
 37
 38
 39
 40
 41
 42
 43
 44
 45

