# freq=raman b3lyp/6-31+g(d,p) geom=connectivity

290 9000.com

0 1
 O                  8.01100000    7.51000000   22.86700000
 C                  8.53900000    7.93100000   24.13300000
 C                  8.01200000    9.29100000   24.56100000
 O                  8.56100000   10.37100000   23.79200000
 H                  8.59600000   10.15500000   22.81600000
 C                  8.40000000    9.66700000   25.98200000
 O                  7.74400000   10.84200000   26.48100000
 H                  8.06500000   11.00100000   27.41500000
 C                  8.35200000    5.46900000   24.99900000
 O                  7.96500000    4.89000000   23.74400000
 H                  7.88000000    3.90300000   23.88000000
 C                  8.08300000    6.95100000   25.20200000
 O                  8.79300000    7.28300000   26.40400000
 C                  8.19200000    8.48300000   26.91200000
 O                  8.89900000    8.73900000   28.13400000
 C                  8.35600000    8.33600000   29.40000000
 C                  8.74100000    6.98300000   29.97600000
 O                  8.54900000    6.00900000   28.94000000
 H                  8.91200000    6.42200000   28.10500000
 C                  8.06300000    6.66600000   31.29900000
 O                  8.27700000    5.33600000   31.79200000
 H                  7.87900000    5.23600000   32.70400000
 C                  8.20500000   10.87300000   30.08700000
 O                  8.77000000   11.48000000   28.91500000
 H                  8.65400000   12.46800000   29.01200000
 C                  8.58900000    9.44100000   30.41800000
 O                  8.06900000    9.06900000   31.70300000
 C                  8.47500000    7.79700000   32.22800000
 O                  7.54800000    7.65800000   33.31500000
 H                  8.73483314    7.31100990   22.26861172
 H                  7.84343608    4.93584790   25.77489404
 H                  9.40265023    5.30825743   25.12227173
 H                  7.03545581    7.08985014   25.37014222
 H                  9.60801225    7.95205485   24.09214039
 H                  6.94576178    9.30018750   24.47182795
 H                  9.44912323    9.87713652   25.97288444
 H                  7.15044301    8.33128902   27.10446508
 H                  8.03235095    7.55286608   34.13716240
 H                  8.47288802   11.48077625   30.92589453
 H                  7.14030557   10.90615432   29.98587354
 H                  9.65103857    9.46969602   30.54508506
 H                  7.29687670    8.29144868   29.25449052
 H                  9.79197314    7.01918839   30.17360024
 H                  7.00966466    6.76505579   31.13908562
 H                  9.49930910    7.75950093   32.53505812

 1 2 1.0 30 1.0
 2 3 1.0 12 1.0 34 1.0
 3 4 1.0 6 1.0 35 1.0
 4 5 1.0
 5
 6 7 1.0 14 1.0 36 1.0
 7 8 1.0
 8
 9 10 1.0 12 1.0 31 1.0 32 1.0
 10 11 1.0
 11
 12 13 1.0 33 1.0
 13 14 1.0
 14 15 1.0 37 1.0
 15 16 1.0
 16 17 1.0 26 1.0 42 1.0
 17 18 1.0 20 1.0 43 1.0
 18 19 1.0
 19
 20 21 1.0 28 1.0 44 1.0
 21 22 1.0
 22
 23 24 1.0 26 1.0 39 1.0 40 1.0
 24 25 1.0
 25
 26 27 1.0 41 1.0
 27 28 1.0
 28 29 1.0 45 1.0
 29 38 1.0
 30
 31
 32
 33
 34
 35
 36
 37
 38
 39
 40
 41
 42
 43
 44
 45

