# freq=raman b3lyp/6-31+g(2d,p) geom=connectivity

310 9770/9770.com

0 1
O           7.66500         7.45400        12.28900
C           8.13500         7.84300        13.58800
C           7.58000         9.21100        13.95100
O           7.75100        10.22700        12.95100
H           7.90800         9.81600        12.05300
C           8.05900         9.67000        15.31800
O           7.34700        10.79000        15.86500
H           7.62300        11.12500        16.76600
C           8.34800         5.40000        14.40100
O           8.06100         4.72900        13.16500
H           8.24500         3.76900        13.37700
C           7.91700         6.82700        14.69700
O           8.36300         7.28200        15.98400
C           7.83600         8.56800        16.34100
O           8.61700         8.92000        17.49200
C           8.06800         8.39000        18.70700
C           8.75500         7.10700        19.14500
O           8.34800         5.97100        18.36800
H           8.39900         6.24600        17.40700
C           8.26000         6.73200        20.53200
O           8.76600         5.54000        21.15100
H           8.46300         5.50100        22.10300
C           7.84100        10.88500        19.38600
O           8.43900        11.62500        18.31100
H           8.33500        12.59400        18.53700
C           8.28400         9.47600        19.74900
O           7.66200         9.03100        20.96300
C           8.43000         7.92400        21.45900
O           7.69900         7.60600        22.65200

