# freq=raman b3lyp/6-31+g(2d,p) geom=connectivity

450 9144/9144.com

0 1
O          10.35800         7.81900        11.75400
C          11.21000         7.80800        12.90900
C          11.57200         9.20900        13.37400
O          12.58900         9.75400        12.52200
H          12.32000         9.65300        11.56400
C          12.15600         9.26400        14.77600
O          12.19800        10.61300        15.26300
H          12.55500        11.11800        14.47700
C          10.48800         5.59900        13.50000
O          10.05400         4.55400        14.38200
H           9.83600         3.71100        13.89200
C          10.53300         7.02600        14.02300
O          11.14600         7.08800        15.31900
C          11.43600         8.40700        15.80500
O          12.02600         8.20300        17.09700
C          11.12000         8.34700        18.20100
C          10.76600         6.98400        18.77300
O           9.81500         6.38100        17.88300
H          10.42000         6.25500        17.09700
C          10.01700         7.03100        20.09400
O           9.87700         5.69400        20.59600
H           8.90600         5.49300        20.46400
C          12.30000        10.38600        18.84500
O          13.18400        11.22300        19.60600
H          14.05800        10.80600        19.85800
C          11.88700         9.00800        19.33400
O          11.22100         9.02200        20.60500
C          11.02300         7.66900        21.04000
O          10.45700         7.73600        22.35700

