# freq=raman b3lyp/6-31+g(d,p) geom=connectivity

300 9000.com

0 1
 O                  7.66700000    7.71600000   12.36700000
 C                  8.42700000    7.97300000   13.55700000
 C                  8.10300000    9.37100000   14.05600000
 O                  8.29300000   10.42200000   13.09800000
 H                  7.92700000   10.17300000   12.20100000
 C                  8.65000000    9.73500000   15.42700000
 O                  7.99000000   10.91200000   15.91500000
 H                  8.32700000   11.01900000   16.85100000
 C                  8.37000000    5.54300000   14.34200000
 O                  7.73200000    4.85000000   13.26000000
 H                  7.57200000    3.89100000   13.49400000
 C                  8.04500000    6.99500000   14.65500000
 O                  8.62500000    7.34200000   15.92100000
 C                  8.20800000    8.63600000   16.38000000
 O                  8.96200000    8.92800000   17.56500000
 C                  8.35900000    8.59000000   18.82200000
 C                  8.94700000    7.32800000   19.43100000
 O                  8.92800000    6.21700000   18.52400000
 H                  9.11800000    6.67000000   17.65300000
 C                  8.33500000    6.83500000   20.73200000
 O                  9.07500000    5.75900000   21.32700000
 H                  8.67300000    5.54700000   22.21700000
 C                  8.25900000   11.06400000   19.44100000
 O                  8.89000000   11.73300000   18.34000000
 H                  8.62500000   12.69500000   18.41400000
 C                  8.62700000    9.65400000   19.87400000
 O                  7.88400000    9.16400000   21.00000000
 C                  8.35900000    8.00600000   21.70100000
 O                  7.56900000    7.70600000   22.86100000
 H                  8.26531883    7.55751860   11.63317562
 H                  8.14848397    7.51436334   23.60199509
 H                  9.36931220    8.17921302   22.00786561
 H                  7.32423541    6.52776088   20.56212042
 H                  9.97498667    7.54141547   19.63739100
 H                  7.30360725    8.46919049   18.69373774
 H                  9.66838721    9.63614702   20.11914069
 H                  8.39869915   11.69049695   20.29708745
 H                  7.21044484   11.05211890   19.22818338
 H                  7.15472963    8.67230369   16.56494210
 H                  9.71390177    9.84862499   15.41688103
 H                  7.04335503    9.34666162   14.20249295
 H                  9.47305819    7.89438481   13.34609265
 H                  6.98309958    7.05832768   14.77013951
 H                  8.16974494    4.98180648   15.23074054
 H                  9.42390786    5.49243872   14.16417485

 1 2 1.0 30 1.0
 2 3 1.0 12 1.0 42 1.0
 3 4 1.0 6 1.0 41 1.0
 4 5 1.0
 5
 6 7 1.0 14 1.0 40 1.0
 7 8 1.0
 8
 9 10 1.0 12 1.0 44 1.0 45 1.0
 10 11 1.0
 11
 12 13 1.0 43 1.0
 13 14 1.0
 14 15 1.0 39 1.0
 15 16 1.0
 16 17 1.0 26 1.0 35 1.0
 17 18 1.0 20 1.0 34 1.0
 18 19 1.0
 19
 20 21 1.0 28 1.0 33 1.0
 21 22 1.0
 22
 23 24 1.0 26 1.0 37 1.0 38 1.0
 24 25 1.0
 25
 26 27 1.0 36 1.0
 27 28 1.0
 28 29 1.0 32 1.0
 29 31 1.0
 30
 31
 32
 33
 34
 35
 36
 37
 38
 39
 40
 41
 42
 43
 44
 45

