# freq=raman b3lyp/6-31+g(d,p) geom=connectivity

290 6000.com

0 1
 O                  7.58700000    7.80300000   22.66200000
 C                  8.16100000    8.08700000   23.94600000
 C                  7.79200000    9.48600000   24.41300000
 O                  8.08100000   10.52000000   23.46200000
 H                  8.04700000   10.07800000   22.56600000
 C                  8.30200000    9.85900000   25.79600000
 O                  8.06400000   11.22700000   26.15600000
 H                  8.32000000   11.30800000   27.11900000
 C                  8.24700000    5.66600000   24.88400000
 O                  7.72800000    4.83000000   23.83900000
 H                  8.04700000    3.91300000   24.07800000
 C                  7.77000000    7.10200000   25.03600000
 O                  8.24400000    7.59100000   26.29800000
 C                  7.79000000    8.85200000   26.81300000
 O                  8.63000000    8.84400000   27.97600000
 C                  7.92700000    8.49700000   29.17800000
 C                  8.48400000    7.17400000   29.67900000
 O                  8.20200000    6.09400000   28.77800000
 H                  8.33800000    6.33900000   27.81800000
 C                  7.97600000    6.85500000   31.07500000
 O                  8.41300000    5.61100000   31.64200000
 H                  7.80600000    5.47900000   32.42500000
 C                  7.92200000   10.92000000   30.02900000
 O                  8.56200000   11.55000000   28.91000000
 H                  8.37400000   12.52800000   28.82000000
 C                  8.32300000    9.47400000   30.27300000
 O                  7.76200000    9.14700000   31.55300000
 C                  8.32900000    7.93900000   32.08000000
 O                  7.58100000    7.74500000   33.28900000
 H                  8.18656471    7.62697908   34.02450149
 H                  9.38188159    8.02036228   32.25239645
 H                  6.90839769    6.81479377   31.01576511
 H                  9.54762193    7.27450489   29.73822121
 H                  6.86746165    8.45986963   29.03343226
 H                  9.38855233    9.44204059   30.36506975
 H                  8.15115004   11.48481901   30.90841443
 H                  6.86396916   10.95312470   29.87287987
 H                  8.28850446    7.66146660   22.02210955
 H                  8.04784854    5.16963785   25.81074879
 H                  9.30926199    5.69985655   24.76009194
 H                  6.70104882    7.08076649   25.07833795
 H                  9.22508917    8.04876599   23.84039505
 H                  6.72569626    9.47623404   24.50132307
 H                  9.36499324    9.74056366   25.76569800
 H                  6.73988415    8.89378167   27.01402488

 1 2 1.0 38 1.0
 2 3 1.0 12 1.0 42 1.0
 3 4 1.0 6 1.0 43 1.0
 4 5 1.0
 5
 6 7 1.0 14 1.0 44 1.0
 7 8 1.0
 8
 9 10 1.0 12 1.0 39 1.0 40 1.0
 10 11 1.0
 11
 12 13 1.0 41 1.0
 13 14 1.0
 14 15 1.0 45 1.0
 15 16 1.0
 16 17 1.0 26 1.0 34 1.0
 17 18 1.0 20 1.0 33 1.0
 18 19 1.0
 19
 20 21 1.0 28 1.0 32 1.0
 21 22 1.0
 22
 23 24 1.0 26 1.0 36 1.0 37 1.0
 24 25 1.0
 25
 26 27 1.0 35 1.0
 27 28 1.0
 28 29 1.0 31 1.0
 29 30 1.0
 30
 31
 32
 33
 34
 35
 36
 37
 38
 39
 40
 41
 42
 43
 44
 45

