# freq=raman b3lyp/6-31+g(d,p) geom=connectivity

400 10000.com

0 1
O           9.42700         7.76400        12.01400
C          10.13100         7.75000        13.26400
C          10.20900         9.21500        13.66100
O          10.95700        10.04700        12.76200
H          10.73800         9.81100        11.81500
C          10.59100         9.48100        15.10800
O          10.11200        10.69300        15.70900
H          10.55200        10.83200        16.59700
C           9.33300         5.52900        14.03400
O           9.17700         4.88300        12.76300
H           9.08700         3.90700        12.96500
C           9.33800         7.01900        14.33500
O          10.02700         7.10900        15.59100
C           9.91900         8.47200        16.02600
O          10.89900         8.39000        17.07100
C          10.41400         8.13700        18.39700
C          10.97100         6.81800        18.90700
O          10.70600         5.75700        17.97800
H          10.77100         6.26600        17.11900
C          10.28400         6.41100        20.20100
O          10.83100         5.15200        20.61700
H          10.40400         4.96100        21.50100
C          10.63900        10.53900        19.12000
O          11.49700        11.22700        18.19800
H          11.27000        12.20100        18.17900
C          10.92000         9.08700        19.47000
O          10.22400         8.86200        20.70500
C          10.44700         7.53700        21.20900
O           9.63100         7.50100        22.38900

