# freq=raman b3lyp/6-31+g(d,p) geom=connectivity

400 10000.com

0 1
 O                  9.42700000    7.76400000   12.01400000
 C                 10.13100000    7.75000000   13.26400000
 C                 10.20900000    9.21500000   13.66100000
 O                 10.95700000   10.04700000   12.76200000
 H                 10.73800000    9.81100000   11.81500000
 C                 10.59100000    9.48100000   15.10800000
 O                 10.11200000   10.69300000   15.70900000
 H                 10.55200000   10.83200000   16.59700000
 C                  9.33300000    5.52900000   14.03400000
 O                  9.17700000    4.88300000   12.76300000
 H                  9.08700000    3.90700000   12.96500000
 C                  9.33800000    7.01900000   14.33500000
 O                 10.02700000    7.10900000   15.59100000
 C                  9.91900000    8.47200000   16.02600000
 O                 10.89900000    8.39000000   17.07100000
 C                 10.41400000    8.13700000   18.39700000
 C                 10.97100000    6.81800000   18.90700000
 O                 10.70600000    5.75700000   17.97800000
 H                 10.77100000    6.26600000   17.11900000
 C                 10.28400000    6.41100000   20.20100000
 O                 10.83100000    5.15200000   20.61700000
 H                 10.40400000    4.96100000   21.50100000
 C                 10.63900000   10.53900000   19.12000000
 O                 11.49700000   11.22700000   18.19800000
 H                 11.27000000   12.20100000   18.17900000
 C                 10.92000000    9.08700000   19.47000000
 O                 10.22400000    8.86200000   20.70500000
 C                 10.44700000    7.53700000   21.20900000
 O                  9.63100000    7.50100000   22.38900000
 H                 10.19359715    7.47727936   23.16650999
 H                 11.46438201    7.49967700   21.53830358
 H                  9.24027239    6.27933974   20.00555626
 H                 12.02526804    6.90588396   19.06729756
 H                  9.34432152    8.11115514   18.40147250
 H                 11.97066866    8.94530699   19.61463212
 H                 10.64689885   11.09338561   20.03514709
 H                  9.64619117   10.58354370   18.72345683
 H                 10.05861168    7.77209661   11.29108843
 H                  8.94747498    8.75560218   16.37328797
 H                 11.65335975    9.41810176   15.21906560
 H                  9.20173408    9.56662286   13.57928878
 H                 11.10852202    7.32963884   13.15154026
 H                  8.34179087    7.40190678   14.41148371
 H                  8.55238843    5.12680713   14.64538079
 H                 10.26561131    5.16773973   14.41429879

 1 2 1.0 38 1.0
 2 3 1.0 12 1.0 42 1.0
 3 4 1.0 6 1.0 41 1.0
 4 5 1.0
 5
 6 7 1.0 14 1.0 40 1.0
 7 8 1.0
 8
 9 10 1.0 12 1.0 44 1.0 45 1.0
 10 11 1.0
 11
 12 13 1.0 43 1.0
 13 14 1.0
 14 15 1.0 39 1.0
 15 16 1.0
 16 17 1.0 26 1.0 34 1.0
 17 18 1.0 20 1.0 33 1.0
 18 19 1.0
 19
 20 21 1.0 28 1.0 32 1.0
 21 22 1.0
 22
 23 24 1.0 26 1.0 36 1.0 37 1.0
 24 25 1.0
 25
 26 27 1.0 35 1.0
 27 28 1.0
 28 29 1.0 31 1.0
 29 30 1.0
 30
 31
 32
 33
 34
 35
 36
 37
 38
 39
 40
 41
 42
 43
 44
 45

