# freq=raman b3lyp/6-31+g(d,p) geom=connectivity

400 5000.com

0 1
O           8.71200         7.68500        11.95900
C           9.42700         7.90500        13.18400
C           8.98200         9.24800        13.73900
O           9.03900        10.28200        12.74600
H           9.00500         9.90400        11.82100
C           9.52300         9.60500        15.11400
O           8.84300        10.79300        15.54200
H           9.07800        10.95500        16.50000
C           9.00100         5.50700        14.11000
O           8.20300         4.83200        13.12600
H           8.15600         3.86300        13.36800
C           9.04000         7.00800        14.34800
O           9.74600         7.27700        15.56700
C           9.16700         8.48600        16.08000
O           9.92800         8.79800        17.25600
C           9.34900         8.41100        18.51100
C           9.91200         7.09600        19.02700
O           9.85900         6.12800        17.96800
H           9.95800         6.69300        17.14900
C           9.29200         6.64800        20.34000
O           9.55100         5.34900        20.89100
H           9.28000         5.12100        21.82700
C           9.33800        10.75400        19.21400
O           9.88100        11.42300        18.06600
H           9.84500        12.42200        18.07900
C           9.76600         9.35500        19.62700
O           9.12600         9.02800        20.86900
C           9.43400         7.73000        21.39800
O           8.60800         7.60600        22.56500

