# freq=raman b3lyp/6-31+g(d,p) geom=connectivity

400 7000.com

0 1
O           9.39400         7.46900        12.01800
C           9.95600         7.69800        13.31800
C           9.72100         9.13700        13.74400
O           9.86100        10.15200        12.73900
H           9.62100         9.79400        11.83600
C          10.33800         9.63000        15.04300
O           9.80900        10.93000        15.34000
H          10.06400        11.12800        16.28600
C           9.79600         5.37800        14.14600
O           9.18000         4.84000        12.96600
H           8.96000         3.87400        13.10400
C           9.52800         6.83300        14.49200
O          10.20900         7.20500        15.69900
C          10.02000         8.57300        16.08900
O          10.93400         8.60300        17.19500
C          10.30800         8.41000        18.47200
C          10.44900         6.98600        18.98300
O          10.02100         5.96600        18.06900
H          10.31700         6.35800        17.19800
C           9.81300         6.68300        20.33000
O          10.37500         5.50400        20.92300
H           9.97100         5.25700        21.80400
C          10.45100        10.73200        19.30200
O          10.99500        11.37200        18.13800
H          10.76500        12.34400        18.08700
C          10.75900         9.28100        19.63300
O           9.83800         9.11300        20.72000
C          10.16000         7.82700        21.27000
O           9.16900         7.75300        22.30600

