# freq=raman b3lyp/6-31+g(d,p) geom=connectivity

400 7000.com

0 1
 O                  9.39400000    7.46900000   12.01800000
 C                  9.95600000    7.69800000   13.31800000
 C                  9.72100000    9.13700000   13.74400000
 O                  9.86100000   10.15200000   12.73900000
 H                  9.62100000    9.79400000   11.83600000
 C                 10.33800000    9.63000000   15.04300000
 O                  9.80900000   10.93000000   15.34000000
 H                 10.06400000   11.12800000   16.28600000
 C                  9.79600000    5.37800000   14.14600000
 O                  9.18000000    4.84000000   12.96600000
 H                  8.96000000    3.87400000   13.10400000
 C                  9.52800000    6.83300000   14.49200000
 O                 10.20900000    7.20500000   15.69900000
 C                 10.02000000    8.57300000   16.08900000
 O                 10.93400000    8.60300000   17.19500000
 C                 10.30800000    8.41000000   18.47200000
 C                 10.44900000    6.98600000   18.98300000
 O                 10.02100000    5.96600000   18.06900000
 H                 10.31700000    6.35800000   17.19800000
 C                  9.81300000    6.68300000   20.33000000
 O                 10.37500000    5.50400000   20.92300000
 H                  9.97100000    5.25700000   21.80400000
 C                 10.45100000   10.73200000   19.30200000
 O                 10.99500000   11.37200000   18.13800000
 H                 10.76500000   12.34400000   18.08700000
 C                 10.75900000    9.28100000   19.63300000
 O                  9.83800000    9.11300000   20.72000000
 C                 10.16000000    7.82700000   21.27000000
 O                  9.16900000    7.75300000   22.30600000
 H                  9.60293941    7.69198920   23.16015120
 H                 11.15828867    7.77231165   21.65122031
 H                  8.75188157    6.58604231   20.23239425
 H                 11.49966754    6.83462700   19.11747650
 H                  9.26289499    8.59269805   18.33315857
 H                 11.77819811    9.12212218   19.91741705
 H                 10.75792574   11.31340419   20.14619533
 H                  9.38650874   10.81337015   19.23032537
 H                 10.10141003    7.35641366   11.37886358
 H                  9.47878912    4.78341400   14.97711055
 H                 10.85429220    5.25910066   14.04217044
 H                  8.47615498    6.95922896   14.64229407
 H                 11.01376909    7.57238622   13.21677877
 H                  8.67226379    9.14721755   13.95600937
 H                 11.39911762    9.70036280   14.92476945
 H                  9.02051767    8.70975868   16.44569615

 1 2 1.0 38 1.0
 2 3 1.0 12 1.0 42 1.0
 3 4 1.0 6 1.0 43 1.0
 4 5 1.0
 5
 6 7 1.0 14 1.0 44 1.0
 7 8 1.0
 8
 9 10 1.0 12 1.0 39 1.0 40 1.0
 10 11 1.0
 11
 12 13 1.0 41 1.0
 13 14 1.0
 14 15 1.0 45 1.0
 15 16 1.0
 16 17 1.0 26 1.0 34 1.0
 17 18 1.0 20 1.0 33 1.0
 18 19 1.0
 19
 20 21 1.0 28 1.0 32 1.0
 21 22 1.0
 22
 23 24 1.0 26 1.0 36 1.0 37 1.0
 24 25 1.0
 25
 26 27 1.0 35 1.0
 27 28 1.0
 28 29 1.0 31 1.0
 29 30 1.0
 30
 31
 32
 33
 34
 35
 36
 37
 38
 39
 40
 41
 42
 43
 44
 45

