# freq=raman b3lyp/6-31+g(d,p) geom=connectivity

400 8000.com

0 1
O           9.66400         7.65600        12.09400
C          10.34200         7.82900        13.34700
C          10.31900         9.25200        13.88200
O          10.79600        10.20900        12.92500
H          10.44800         9.88100        12.04700
C          10.99300         9.46100        15.22800
O          10.46000        10.65100        15.82500
H          10.83800        10.84600        16.73000
C          10.34900         5.39900        14.06100
O           9.47300         4.79500        13.09800
H           9.43300         3.85700        13.44400
C          10.05000         6.83500        14.45900
O          10.89700         7.10000        15.58700
C          10.54100         8.36000        16.17300
O          11.38500         8.25500        17.32900
C          10.73100         8.18600        18.60500
C          10.53700         6.83300        19.27000
O           9.91700         6.00500        18.27600
H          10.25600         6.16500        17.34900
C           9.82900         6.81300        20.61600
O           9.92300         5.52800        21.24900
H           9.68000         5.54900        22.21900
C          11.69700        10.35500        19.20100
O          10.77500        11.22900        18.53300
H          11.04200        12.19300        18.55400
C          11.38900         8.96400        19.73200
O          10.52000         9.12800        20.86200
C          10.38500         7.87600        21.54900
O           9.50500         7.94300        22.68100

