# freq=raman b3lyp/6-31+g(d,p) geom=connectivity

400 9000.com

0 1
O          10.07700         7.25800        11.79200
C          10.55800         7.54600        13.11300
C          10.27800         8.97900        13.53700
O          11.09700         9.91600        12.82300
H          11.21500         9.53000        11.90800
C          10.56900         9.28600        14.99700
O          10.10700        10.57800        15.41500
H          10.40800        10.57200        16.36900
C          10.16300         5.17600        13.91400
O           9.96600         4.54400        12.64100
H           9.76500         3.57700        12.79400
C           9.91800         6.65500        14.16500
O          10.34000         6.90900        15.51300
C           9.99300         8.23700        15.93300
O          10.85100         8.32200        17.08100
C          10.38500         8.22300        18.43400
C          10.73800         6.80600        18.85700
O          10.57600         5.70700        17.94900
H          10.67200         6.00400        16.99900
C          10.09100         6.55000        20.20900
O          10.52100         5.29600        20.75800
H          10.02700         5.06800        21.59700
C          10.66500        10.67100        19.04400
O          10.89700        11.30100        17.77600
H          10.97600        12.29700        17.81700
C          11.00000         9.23000        19.39200
O          10.43800         8.99100        20.69100
C          10.47800         7.64500        21.18900
O           9.76200         7.75000        22.42800

