# freq=raman b3lyp/6-31+g(2d,p) geom=connectivity

493 9682/9682.com

0 1
O           7.45500         7.58100        12.40800
C           8.18300         7.85300        13.61400
C           7.69900         9.23900        14.00700
O           7.88400        10.28300        13.03900
H           7.65400         9.96800        12.11800
C           8.13200         9.63400        15.40900
O           7.56200        10.83600        15.94700
H           7.83600        10.90400        16.90600
C           8.59500         5.48800        14.24900
O           8.02200         4.67700        13.21300
H           8.12600         3.69300        13.35600
C           7.85800         6.76400        14.62400
O           8.29800         7.31800        15.87200
C           7.69800         8.52800        16.35700
O           8.44100         8.72500        17.56900
C           7.99300         8.24100        18.84400
C           8.77200         7.04900        19.37600
O           8.71200         6.10700        18.29500
H           8.68200         6.64400        17.45200
C           8.24900         6.61200        20.73500
O           8.85800         5.52400        21.44400
H           8.27900         5.25400        22.21300
C           8.13800        10.77300        19.64800
O           8.52600        11.50700        18.47700
H           8.51400        12.47300        18.73500
C           8.31700         9.28500        19.90000
O           7.74200         8.95900        21.17300
C           8.27800         7.75300        21.73900
O           7.41000         7.62900        22.87500

