# freq=raman b3lyp/6-31+g(2d,p) geom=connectivity

450 6760/6760.com

0 1
O          10.50600         8.23300        11.44000
C          11.45400         7.93800        12.47600
C          12.06700         9.19400        13.07200
O          12.90300         9.71000        12.02600
H          12.30500         9.62400        11.22900
C          12.83100         9.10100        14.38300
O          12.96200        10.43400        14.89900
H          13.22700        10.93000        14.07200
C          10.41200         5.72600        13.18400
O          10.05800         4.79100        14.21400
H           9.64000         4.03700        13.70700
C          10.87400         7.10900        13.61100
O          11.79400         7.02300        14.71000
C          11.96200         8.30100        15.33900
O          12.55600         8.02000        16.61400
C          11.68300         8.34100        17.70700
C          11.03000         7.07200        18.23200
O          10.19400         6.38500        17.29000
H          10.67100         6.01700        16.49200
C          10.35200         7.33400        19.56700
O           9.72000         6.09200        19.91000
H           9.21800         6.01900        19.04800
C          12.92900        10.37900        18.41300
O          13.89000        10.98300        19.29100
H          14.68200        10.37700        19.36900
C          12.54200         8.96000        18.79800
O          11.89100         9.00700        20.07600
C          11.36800         7.78100        20.60700
O          10.86400         7.90200        21.94500

