# freq=raman b3lyp/6-31+g(2d,p) geom=connectivity

450 6760/6760.com

0 1
 O                 10.50600000    8.23300000   11.44000000
 C                 11.45400000    7.93800000   12.47600000
 C                 12.06700000    9.19400000   13.07200000
 O                 12.90300000    9.71000000   12.02600000
 H                 12.30500000    9.62400000   11.22900000
 C                 12.83100000    9.10100000   14.38300000
 O                 12.96200000   10.43400000   14.89900000
 H                 13.22700000   10.93000000   14.07200000
 C                 10.41200000    5.72600000   13.18400000
 O                 10.05800000    4.79100000   14.21400000
 H                  9.64000000    4.03700000   13.70700000
 C                 10.87400000    7.10900000   13.61100000
 O                 11.79400000    7.02300000   14.71000000
 C                 11.96200000    8.30100000   15.33900000
 O                 12.55600000    8.02000000   16.61400000
 C                 11.68300000    8.34100000   17.70700000
 C                 11.03000000    7.07200000   18.23200000
 O                 10.19400000    6.38500000   17.29000000
 H                 10.67100000    6.01700000   16.49200000
 C                 10.35200000    7.33400000   19.56700000
 O                  9.72000000    6.09200000   19.91000000
 H                  9.21800000    6.01900000   19.04800000
 C                 12.92900000   10.37900000   18.41300000
 O                 13.89000000   10.98300000   19.29100000
 H                 14.68200000   10.37700000   19.36900000
 C                 12.54200000    8.96000000   18.79800000
 O                 11.89100000    9.00700000   20.07600000
 C                 11.36800000    7.78100000   20.60700000
 O                 10.86400000    7.90200000   21.94500000
 H                 11.59902735    7.95761780   22.56001338
 H                 12.04567984   10.98284701   18.40922085
 H                 13.33559250   10.36357686   17.42338155
 H                 13.43551433    8.37932898   18.89471252
 H                 10.93452958    9.03622663   17.38864176
 H                 11.83515700    6.39969859   18.44326528
 H                  9.60698466    8.09249274   19.44641437
 H                 12.16137687    7.06319336   20.62137968
 H                 10.97403236    8.46254627   10.63386464
 H                 11.19479566    5.28708629   12.60134597
 H                  9.55918123    5.84942659   12.54967672
 H                 10.00969573    7.62992393   13.96669142
 H                 12.24605685    7.37034295   12.03405949
 H                 11.27153997    9.89383474   13.22158165
 H                 13.78664631    8.63979402   14.24541666
 H                 11.01292715    8.77815010   15.46740762

 1 2 1.0 38 1.0
 2 3 1.0 12 1.0 42 1.0
 3 4 1.0 6 1.0 43 1.0
 4 5 1.0
 5
 6 7 1.0 14 1.0 44 1.0
 7 8 1.0
 8
 9 10 1.0 12 1.0 39 1.0 40 1.0
 10 11 1.0
 11
 12 13 1.0 41 1.0
 13 14 1.0
 14 15 1.0 45 1.0
 15 16 1.0
 16 17 1.0 26 1.0 34 1.0
 17 18 1.0 20 1.0 35 1.0
 18 19 1.0
 19
 20 21 1.0 28 1.0 36 1.0
 21 22 1.0
 22
 23 24 1.0 26 1.0 31 1.0 32 1.0
 24 25 1.0
 25
 26 27 1.0 33 1.0
 27 28 1.0
 28 29 1.0 37 1.0
 29 30 1.0
 30
 31
 32
 33
 34
 35
 36
 37
 38
 39
 40
 41
 42
 43
 44
 45

