# freq=raman b3lyp/6-31+g(2d,p) geom=connectivity

500 5480/5480.com

0 1
 O                  8.58300000    7.79200000   12.14800000
 C                  9.27500000    7.71500000   13.40200000
 C                  9.37700000    9.12600000   13.95800000
 O                 10.00400000   10.18000000   13.21200000
 H                  9.79800000   10.05400000   12.24100000
 C                  9.83000000    9.23400000   15.40500000
 O                  9.58700000   10.53000000   15.97000000
 H                 10.05600000   11.29600000   15.53000000
 C                  8.75700000    5.29000000   13.95300000
 O                  8.64800000    4.29700000   14.98300000
 H                  8.88400000    3.43200000   14.54000000
 C                  8.68200000    6.73900000   14.40600000
 O                  9.41000000    6.87500000   15.63500000
 C                  9.20600000    8.14700000   16.26500000
 O                 10.06400000    7.93800000   17.39600000
 C                  9.51100000    7.55300000   18.66300000
 C                  9.31800000    6.10300000   19.07400000
 O                  8.69900000    5.31700000   18.04500000
 H                  8.93200000    5.71600000   17.15800000
 C                  8.56900000    5.94700000   20.38700000
 O                  8.13000000    4.60400000   20.63700000
 H                  7.72500000    4.35100000   19.75800000
 C                 10.16500000    9.64000000   19.58800000
 O                 11.12400000   10.57300000   20.10600000
 H                 10.77900000   11.50800000   20.19400000
 C                 10.23300000    8.14600000   19.86200000
 O                  9.57100000    8.03500000   21.13100000
 C                  9.31500000    6.67100000   21.49500000
 O                  8.60400000    6.65100000   22.74100000
 H                  9.23155962    6.63934055   23.46738349
 H                  9.22140781    7.83594126   11.43238513
 H                  9.69188592    5.14717048   13.45251219
 H                  7.97098568    5.12247467   13.24658882
 H                  7.65780917    6.99668405   14.57784898
 H                 10.27076532    7.38368779   13.19323303
 H                  8.35311364    9.43452917   13.99496591
 H                 10.88849990    9.07797378   15.41656659
 H                  8.18678159    8.33309717   16.53232316
 H                  9.20611218    9.96825873   19.93104571
 H                 10.17419419    9.75429851   18.52416199
 H                 11.24709448    7.80906776   19.91667215
 H                  8.53041776    7.98106155   18.67403534
 H                 10.29532849    5.69521391   19.22709970
 H                  7.66540726    6.50533530   20.25784175
 H                 10.25532027    6.18118811   21.63915999

 1 2 1.0 31 1.0
 2 3 1.0 12 1.0 35 1.0
 3 4 1.0 6 1.0 36 1.0
 4 5 1.0
 5
 6 7 1.0 14 1.0 37 1.0
 7 8 1.0
 8
 9 10 1.0 12 1.0 32 1.0 33 1.0
 10 11 1.0
 11
 12 13 1.0 34 1.0
 13 14 1.0
 14 15 1.0 38 1.0
 15 16 1.0
 16 17 1.0 26 1.0 42 1.0
 17 18 1.0 20 1.0 43 1.0
 18 19 1.0
 19
 20 21 1.0 28 1.0 44 1.0
 21 22 1.0
 22
 23 24 1.0 26 1.0 39 1.0 40 1.0
 24 25 1.0
 25
 26 27 1.0 41 1.0
 27 28 1.0
 28 29 1.0 45 1.0
 29 30 1.0
 30
 31
 32
 33
 34
 35
 36
 37
 38
 39
 40
 41
 42
 43
 44
 45

