# freq=raman b3lyp/6-31+g(2d,p) geom=connectivity
550 9000.com
550 9000.com
C          10.66200         7.64000         2.91200
0 1
O          11.45600         8.73000        23.35400
H          11.21600         8.74100        22.38400
C          10.91600         8.57300        25.57800
O          10.74000         9.86400        26.17800
H          11.02900        10.61900        25.58900
C           8.63400         5.04900        24.23100
O           7.87800         4.07100        24.96000
H           6.90100         4.28100        24.91500
C           9.04100         6.41100        24.76900
O           9.93200         6.36100        25.89300
C          10.22200         7.61400        26.53100
O          10.85400         7.32600        27.78700
C          10.08400         7.29700        28.99800
C           9.95400         5.83900        29.40600
O           9.03200         5.14200        28.55500
H           9.35400         5.38100        27.63900
C           9.56200         5.71200        30.86900
O          10.21300         4.50700        31.29600
H           9.92200         3.80300        30.64700
C          11.57600         9.48300        29.70300
O          10.74300        10.65000        29.76100
H           9.99100        10.69900        29.10300
C          11.05100         8.06700        29.88200
O          10.43300         8.08100        31.17600
C          10.25400         6.76500        31.71900
O           9.53100         6.82200        32.95700
C          10.42200         6.76100        34.08000
C          10.75700         8.13800        34.62900
O          11.18100         9.09100        33.64300

