# freq=raman b3lyp/6-31+g(2d,p) geom=connectivity

493 8849/8849.com

0 1
 O                  7.75700000    7.85700000   12.21600000
 C                  8.35900000    8.15200000   13.48500000
 C                  7.94400000    9.53700000   13.95500000
 O                  8.26500000   10.60200000   13.04800000
 H                  7.81900000   10.27500000   12.21500000
 C                  8.46800000    9.77300000   15.36200000
 O                  7.69400000   10.85800000   15.89300000
 H                  8.12100000   11.04300000   16.77800000
 C                  8.32900000    5.68300000   14.20600000
 O                  8.24200000    4.94000000   12.98200000
 H                  8.26200000    3.94900000   13.11800000
 C                  7.90600000    7.11400000   14.49800000
 O                  8.54300000    7.28000000   15.77300000
 C                  8.19000000    8.58100000   16.26400000
 O                  8.99600000    8.84000000   17.42300000
 C                  8.34000000    8.50700000   18.65500000
 C                  8.91600000    7.19400000   19.16100000
 O                  8.62300000    6.07800000   18.30800000
 H                  8.78400000    6.47400000   17.40400000
 C                  8.45700000    6.76300000   20.54400000
 O                  9.12500000    5.60600000   21.06900000
 H                  8.84200000    5.38900000   22.00400000
 C                  7.93000000   10.86500000   19.40600000
 O                  8.49100000   11.68500000   18.37000000
 H                  8.21900000   12.63300000   18.53200000
 C                  8.62300000    9.55000000   19.72400000
 O                  8.19300000    9.14600000   21.03300000
 C                  8.73000000    7.90400000   21.51000000
 O                  7.76400000    7.86500000   22.57000000
 H                  8.21771534    7.83389406   23.41544356
 H                  7.40418193    6.57391320   20.51716167
 H                  9.74136630    7.97176319   21.85270449
 H                  9.97975230    7.30444903   19.19464617
 H                  7.28554961    8.41273132   18.49960441
 H                  9.67848136    9.72306222   19.75414248
 H                  7.90757665   11.44611213   20.30416807
 H                  6.91968027   10.64226951   19.13297037
 H                  8.44439982    7.70526202   11.56326952
 H                  9.36246060    5.64079001   14.48000273
 H                  7.80463107    5.08940784   14.92543420
 H                  6.84349342    7.16083909   14.61541327
 H                  9.42408653    8.11388792   13.38993085
 H                  6.87673419    9.52115543   14.02978400
 H                  9.51041842   10.01411252   15.35066042
 H                  7.15730781    8.58388000   16.54406881

 1 2 1.0 38 1.0
 2 3 1.0 12 1.0 42 1.0
 3 4 1.0 6 1.0 43 1.0
 4 5 1.0
 5
 6 7 1.0 14 1.0 44 1.0
 7 8 1.0
 8
 9 10 1.0 12 1.0 39 1.0 40 1.0
 10 11 1.0
 11
 12 13 1.0 41 1.0
 13 14 1.0
 14 15 1.0 45 1.0
 15 16 1.0
 16 17 1.0 26 1.0 34 1.0
 17 18 1.0 20 1.0 33 1.0
 18 19 1.0
 19
 20 21 1.0 28 1.0 31 1.0
 21 22 1.0
 22
 23 24 1.0 26 1.0 36 1.0 37 1.0
 24 25 1.0
 25
 26 27 1.0 35 1.0
 27 28 1.0
 28 29 1.0 32 1.0
 29 30 1.0
 30
 31
 32
 33
 34
 35
 36
 37
 38
 39
 40
 41
 42
 43
 44
 45

