# freq=raman b3lyp/6-31+g(2d,p) geom=connectivity

493 8849/8849.com

0 1
O           7.75700         7.85700        12.21600
C           8.35900         8.15200        13.48500
C           7.94400         9.53700        13.95500
O           8.26500        10.60200        13.04800
H           7.81900        10.27500        12.21500
C           8.46800         9.77300        15.36200
O           7.69400        10.85800        15.89300
H           8.12100        11.04300        16.77800
C           8.32900         5.68300        14.20600
O           8.24200         4.94000        12.98200
H           8.26200         3.94900        13.11800
C           7.90600         7.11400        14.49800
O           8.54300         7.28000        15.77300
C           8.19000         8.58100        16.26400
O           8.99600         8.84000        17.42300
C           8.34000         8.50700        18.65500
C           8.91600         7.19400        19.16100
O           8.62300         6.07800        18.30800
H           8.78400         6.47400        17.40400
C           8.45700         6.76300        20.54400
O           9.12500         5.60600        21.06900
H           8.84200         5.38900        22.00400
C           7.93000        10.86500        19.40600
O           8.49100        11.68500        18.37000
H           8.21900        12.63300        18.53200
C           8.62300         9.55000        19.72400
O           8.19300         9.14600        21.03300
C           8.73000         7.90400        21.51000
O           7.76400         7.86500        22.57000

