# freq=raman b3lyp/6-31+g(2d,p) geom=connectivity

483 7880/7880.com

0 1
O           7.48500         7.44300        12.32100
C           7.98600         7.90000        13.58600
C           7.54800         9.28300        14.03900
O           8.12200        10.22900        13.12600
H           8.18000         9.77300        12.23800
C           8.02600         9.65400        15.43400
O           7.62600        10.88200        16.05900
H           8.23300        11.02100        16.84100
C           8.11100         5.50500        14.40300
O           7.81500         4.87400        13.14900
H           8.03800         3.90300        13.23300
C           7.60000         6.91000        14.67300
O           8.15600         7.22000        15.96000
C           7.76600         8.52300        16.41500
O           8.63400         8.68300        17.54700
C           8.01600         8.34800        18.79700
C           8.46700         7.00500        19.34800
O           8.13300         5.90400        18.49100
H           8.03000         6.33600        17.59500
C           8.11200         6.63700        20.78000
O           8.97100         5.56300        21.18800
H           8.60000         5.29600        22.07700
C           7.99900        10.81000        19.49200
O           8.44400        11.62300        18.39700
H           8.18900        12.56500        18.61800
C           8.36000         9.38000        19.85900
O           7.64600         9.02200        21.05100
C           8.23000         7.86500        21.66700
O           7.50100         7.67700        22.88900

