# freq=raman b3lyp/6-31+g(2d,p) geom=connectivity

320 7780/7780.com

0 1
O           7.85300         7.42900        12.42400
C           8.33600         7.76700        13.73300
C           7.80600         9.12400        14.16800
O           8.26800        10.14500        13.27200
H           7.86700         9.89700        12.39000
C           8.35600         9.58100        15.50900
O           7.40700        10.50000        16.06900
H           7.76800        11.00700        16.85200
C           8.74200         5.37100        14.55100
O           8.08500         4.50900        13.61000
H           8.32400         3.56000        13.81500
C           8.24400         6.76900        14.87600
O           8.99900         7.21400        16.01300
C           8.39700         8.42400        16.49400
O           9.15700         8.75900        17.66400
C           8.49400         8.37000        18.87500
C           9.01700         7.07700        19.47700
O           8.92700         5.99700        18.53600
H           9.23000         6.37500        17.66200
C           8.45800         6.64000        20.82100
O           9.02600         5.44000        21.36700
H           8.51800         5.22400        22.20100
C           8.21600        10.76900        19.63400
O           8.49700        11.43200        18.39300
H           8.49200        12.42900        18.47100
C           8.66700         9.36700        20.01000
O           7.97000         8.99900        21.20800
C           8.57900         7.82500        21.76600
O           7.69400         7.71100        22.89000

