# freq=raman b3lyp/6-31+g(d,p) geom=connectivity

500 5000.com

0 1
 O                  8.97500000    6.96100000   12.08000000
 C                  9.41700000    7.18200000   13.42700000
 C                  8.91900000    8.48700000   14.02800000
 O                  9.08700000    9.59500000   13.13200000
 H                  8.72500000    9.16500000   12.30500000
 C                  9.76600000    8.83400000   15.24100000
 O                  9.94200000   10.18100000   15.70500000
 H                 10.36500000   10.76300000   15.01100000
 C                  9.32800000    4.70300000   14.15800000
 O                  8.65700000    3.61100000   14.80400000
 H                  8.81900000    2.72600000   14.36700000
 C                  9.08300000    6.16300000   14.50400000
 O                  9.42000000    6.41800000   15.87500000
 C                  9.21100000    7.79900000   16.20500000
 O                  9.82900000    7.99500000   17.48500000
 C                  8.99300000    7.73800000   18.62300000
 C                  8.86400000    6.25300000   18.92300000
 O                  8.01200000    5.54200000   18.01300000
 H                  8.45900000    5.51600000   17.11900000
 C                  8.42400000    6.01200000   20.35700000
 O                  8.24100000    4.60600000   20.57700000
 H                  7.74700000    4.30900000   19.75900000
 C                  9.29100000    9.93500000   19.58500000
 O                  9.52000000   10.81200000   20.69800000
 H                  9.16500000   11.74000000   20.58200000
 C                  9.70200000    8.48000000   19.74500000
 O                  9.33800000    8.10000000   21.08000000
 C                  9.31300000    6.69700000   21.38200000
 O                  8.77300000    6.75400000   22.71000000
 H                  9.49109982    6.78132147   23.34654237
 H                 10.30057141    6.28517201   21.38136019
 H                  7.45703772    6.45962980   20.45452699
 H                  9.84259392    5.83190415   18.82333945
 H                  8.02354949    8.16196829   18.46388812
 H                 10.76112712    8.39047584   19.62197493
 H                  8.24475958    9.95647400   19.36179640
 H                  9.81685109   10.33240607   18.74211861
 H                 10.37602518    4.53375432   14.29178759
 H                  9.12631332    4.60366293   13.11188594
 H                  9.73750007    6.86656787   11.50443400
 H                  8.01452536    6.21628985   14.52454591
 H                 10.48430536    7.24622257   13.38656831
 H                  7.89126832    8.39452706   14.31104833
 H                 10.75432955    8.50206803   15.00032207
 H                  8.15896818    7.96516254   16.30756250

 1 2 1.0 40 1.0
 2 3 1.0 12 1.0 42 1.0
 3 4 1.0 6 1.0 43 1.0
 4 5 1.0
 5
 6 7 1.0 14 1.0 44 1.0
 7 8 1.0
 8
 9 10 1.0 12 1.0 38 1.0 39 1.0
 10 11 1.0
 11
 12 13 1.0 41 1.0
 13 14 1.0
 14 15 1.0 45 1.0
 15 16 1.0
 16 17 1.0 26 1.0 34 1.0
 17 18 1.0 20 1.0 33 1.0
 18 19 1.0
 19
 20 21 1.0 28 1.0 32 1.0
 21 22 1.0
 22
 23 24 1.0 26 1.0 36 1.0 37 1.0
 24 25 1.0
 25
 26 27 1.0 35 1.0
 27 28 1.0
 28 29 1.0 31 1.0
 29 30 1.0
 30
 31
 32
 33
 34
 35
 36
 37
 38
 39
 40
 41
 42
 43
 44
 45

