# freq=raman b3lyp/6-31+g(2d,p) geom=connectivity

550 6570/6570.com

0 1
 O                  9.26100000    7.52500000   11.00100000
 C                  9.95800000    7.67500000   12.24700000
 C                 10.07000000    9.05100000   12.88400000
 O                 10.73500000   10.01100000   12.05100000
 H                 10.50400000    9.83900000   11.09300000
 C                 10.78100000    9.11900000   14.22600000
 O                 10.85400000   10.43900000   14.78400000
 H                 11.34300000   11.17200000   14.31100000
 C                  9.54700000    5.26700000   12.98000000
 O                  8.72300000    4.36800000   13.73600000
 H                  8.48600000    3.53600000   13.23500000
 C                  9.51700000    6.73800000   13.36000000
 O                 10.31200000    6.86400000   14.54800000
 C                 10.19700000    8.12700000   15.21900000
 O                 10.85500000    8.04000000   16.49100000
 C                  9.99800000    8.26800000   17.61900000
 C                  9.59600000    6.84600000   17.97400000
 O                  8.68500000    6.10000000   17.15300000
 H                  8.99700000    5.96500000   16.21300000
 C                  8.68900000    6.94900000   19.18900000
 O                  7.95100000    5.81100000   19.66000000
 H                  7.15700000    5.84400000   19.05300000
 C                 11.51100000   10.11500000   18.41100000
 O                 10.81400000   11.36400000   18.52800000
 H                 11.15200000   11.97700000   17.81400000
 C                 10.87400000    8.77800000   18.75200000
 O                 10.13200000    8.62300000   19.97100000
 C                  9.73400000    7.27100000   20.24400000
 O                  9.40100000    7.14600000   21.63400000
 H                 10.20711350    7.09930657   22.15323092
 H                 10.57869578    6.64025798   20.06082373
 H                  8.02800773    7.78244854   19.07344590
 H                 10.45939310    6.25778808   18.20521222
 H                  9.16529651    8.90294246   17.39910692
 H                 11.68869393    8.08816892   18.82484837
 H                 11.83952339   10.04456695   17.39512030
 H                 12.38713476   10.19798592   19.01960597
 H                  9.89688756    7.43903973   10.28695670
 H                 10.55897422    4.92946879   13.06295091
 H                  9.25678800    5.18963802   11.95301796
 H                  8.50827394    6.98883709   13.61387493
 H                 10.96563337    7.39135518   12.02536832
 H                  9.07185791    9.40411533   13.03866715
 H                 11.79013590    8.81094827   14.04809873
 H                  9.16215689    8.35119943   15.37305954

 1 2 1.0 38 1.0
 2 3 1.0 12 1.0 42 1.0
 3 4 1.0 6 1.0 43 1.0
 4 5 1.0
 5
 6 7 1.0 14 1.0 44 1.0
 7 8 1.0
 8
 9 10 1.0 12 1.0 39 1.0 40 1.0
 10 11 1.0
 11
 12 13 1.0 41 1.0
 13 14 1.0
 14 15 1.0 45 1.0
 15 16 1.0
 16 17 1.0 26 1.0 34 1.0
 17 18 1.0 20 1.0 33 1.0
 18 19 1.0
 19
 20 21 1.0 28 1.0 32 1.0
 21 22 1.0
 22
 23 24 1.0 26 1.0 36 1.0 37 1.0
 24 25 1.0
 25
 26 27 1.0 35 1.0
 27 28 1.0
 28 29 1.0 31 1.0
 29 30 1.0
 30
 31
 32
 33
 34
 35
 36
 37
 38
 39
 40
 41
 42
 43
 44
 45

