# freq=raman b3lyp/6-31+g(2d,p) geom=connectivity

550 6570/6570.com

0 1
O           9.26100         7.52500        11.00100
C           9.95800         7.67500        12.24700
C          10.07000         9.05100        12.88400
O          10.73500        10.01100        12.05100
H          10.50400         9.83900        11.09300
C          10.78100         9.11900        14.22600
O          10.85400        10.43900        14.78400
H          11.34300        11.17200        14.31100
C           9.54700         5.26700        12.98000
O           8.72300         4.36800        13.73600
H           8.48600         3.53600        13.23500
C           9.51700         6.73800        13.36000
O          10.31200         6.86400        14.54800
C          10.19700         8.12700        15.21900
O          10.85500         8.04000        16.49100
C           9.99800         8.26800        17.61900
C           9.59600         6.84600        17.97400
O           8.68500         6.10000        17.15300
H           8.99700         5.96500        16.21300
C           8.68900         6.94900        19.18900
O           7.95100         5.81100        19.66000
H           7.15700         5.84400        19.05300
C          11.51100        10.11500        18.41100
O          10.81400        11.36400        18.52800
H          11.15200        11.97700        17.81400
C          10.87400         8.77800        18.75200
O          10.13200         8.62300        19.97100
C           9.73400         7.27100        20.24400
O           9.40100         7.14600        21.63400

