# freq=raman b3lyp/6-31+g(d,p) geom=connectivity

450 10000.com

0 1
 O                 10.31100000    8.23700000   21.86900000
 C                 11.24200000    7.87800000   22.90000000
 C                 11.91100000    9.10800000   23.49000000
 O                 12.88600000    9.60300000   22.56000000
 H                 12.41400000    9.62400000   21.67800000
 C                 12.60400000    8.99000000   24.83800000
 O                 12.69500000   10.23100000   25.55200000
 H                 12.90000000   11.12500000   25.15300000
 C                 10.47500000    5.63200000   23.43400000
 O                 10.06900000    4.58800000   24.33100000
 H                 10.03300000    3.66000000   23.95900000
 C                 10.60500000    7.03800000   23.99600000
 O                 11.45700000    6.86800000   25.13800000
 C                 11.77200000    8.11900000   25.76600000
 O                 12.41600000    7.69300000   26.97500000
 C                 11.59000000    7.80400000   28.14300000
 C                 11.03300000    6.52700000   28.75100000
 O                 10.28800000    5.84700000   27.73200000
 H                 10.72200000    5.89000000   26.83200000
 C                 10.16200000    6.87200000   29.94800000
 O                  9.50600000    5.67700000   30.39500000
 H                  8.83700000    5.46500000   29.68200000
 C                 12.93700000    9.94900000   28.66300000
 O                 13.66100000   10.92400000   29.42700000
 H                 14.54000000   10.70800000   29.85300000
 C                 12.42000000    8.60000000   29.13600000
 O                 11.70500000    8.77100000   30.36800000
 C                 11.09500000    7.59000000   30.91000000
 O                 10.49700000    7.94000000   32.16700000
 H                 10.79203974    8.51019505   21.08442035
 H                 11.18647956    8.11918091   32.81051545
 H                 11.42385252    5.35697141   23.02297912
 H                  9.76665021    5.66617127   22.63276789
 H                  9.65013055    7.42878524   24.27956874
 H                 12.00748053    7.28386980   22.44618411
 H                 11.15491442    9.85850235   23.58990407
 H                 13.57857690    8.56602520   24.71412410
 H                 10.86439761    8.63027354   26.01045299
 H                 12.07400072   10.46575366   28.29817415
 H                 13.56556728    9.72843449   27.82565059
 H                 13.28079938    8.00481909   29.35889934
 H                 10.75026529    8.41068185   27.87526365
 H                 11.84295858    5.90529368   29.07091929
 H                  9.41151839    7.56531373   29.63020536
 H                 11.88931975    6.90705332   31.12803664

 1 2 1.0 30 1.0
 2 3 1.0 12 1.0 35 1.0
 3 4 1.0 6 1.0 36 1.0
 4 5 1.0
 5
 6 7 1.0 14 1.0 37 1.0
 7 8 1.0
 8
 9 10 1.0 12 1.0 32 1.0 33 1.0
 10 11 1.0
 11
 12 13 1.0 34 1.0
 13 14 1.0
 14 15 1.0 38 1.0
 15 16 1.0
 16 17 1.0 26 1.0 42 1.0
 17 18 1.0 20 1.0 43 1.0
 18 19 1.0
 19
 20 21 1.0 28 1.0 44 1.0
 21 22 1.0
 22
 23 24 1.0 26 1.0 39 1.0 40 1.0
 24 25 1.0
 25
 26 27 1.0 41 1.0
 27 28 1.0
 28 29 1.0 45 1.0
 29 31 1.0
 30
 31
 32
 33
 34
 35
 36
 37
 38
 39
 40
 41
 42
 43
 44
 45

