# freq=raman b3lyp/6-31+g(2d,p) geom=connectivity

473 8911/8911.com

0 1
O           7.45900         7.50300        12.30200
C           8.03500         7.87100        13.56400
C           7.55700         9.21700        14.08300
O           7.69500        10.27600        13.12500
H           7.34800         9.87700        12.27600
C           8.21800         9.65200        15.38100
O           7.76200        10.93200        15.84100
H           8.35800        11.25100        16.57800
C           8.07800         5.44500        14.31800
O           7.48900         4.80200        13.17800
H           7.66500         3.82800        13.31500
C           7.67400         6.87200        14.65000
O           8.31000         7.25100        15.87900
C           7.89500         8.53700        16.36200
O           8.79600         8.64500        17.47400
C           8.20500         8.38000        18.75400
C           8.80300         7.08100        19.27000
O           8.90900         6.00300        18.33000
H           9.02100         6.39900        17.41800
C           8.25900         6.66900        20.62800
O           9.10700         5.59900        21.06900
H           8.88900         5.52000        22.04200
C           8.24500        10.92800        19.47800
O           8.83100        11.54500        18.32200
H           8.56900        12.51000        18.29300
C           8.40600         9.45400        19.81100
O           7.74800         9.00600        21.00500
C           8.44800         7.87200        21.53800
O           7.72500         7.61700        22.75100

