# freq=raman b3lyp/6-31+g(2d,p) geom=connectivity

400 8947/8947.com

0 1
O           9.62300         7.84300        11.79600
C          10.23700         7.90900        13.09100
C          10.36400         9.35200        13.55100
O          10.76900        10.22300        12.48500
H          10.64400         9.83200        11.57300
C          10.87500         9.44600        14.97900
O          10.77600        10.81400        15.40100
H          11.12700        10.89000        16.33400
C           9.39200         5.49800        13.66600
O           8.91600         4.85300        12.47600
H           9.05200         3.87200        12.61300
C           9.61200         6.94300        14.08400
O          10.24400         7.10600        15.36200
C          10.17700         8.44200        15.88200
O          10.94900         8.48800        17.09000
C          10.16800         8.31200        18.28200
C          10.27700         6.86600        18.73600
O           9.49600         6.17100        17.75300
H           9.65900         6.40800        16.79500
C           9.73500         6.52700        20.11500
O          10.14600         5.19700        20.46200
H           9.91900         5.13400        21.43400
C          10.38500        10.68700        19.06200
O          11.32500        11.20700        18.11100
H          11.47100        12.17500        18.31600
C          10.65500         9.22800        19.39300
O           9.92300         8.83600        20.56200
C          10.27800         7.55200        21.09700
O           9.48500         7.65500        22.28800

