# freq=raman b3lyp/6-31+g(2d,p) geom=connectivity

550 5019/5019.com

0 1
 O                  9.24900000    7.31200000   11.30000000
 C                 10.19600000    7.18500000   12.37100000
 C                 10.54800000    8.57800000   12.86600000
 O                 11.33200000    9.18500000   11.82900000
 H                 10.82400000    9.08000000   10.97400000
 C                 11.04400000    8.60900000   14.30300000
 O                 11.41400000    9.89800000   14.81200000
 H                 11.82800000   10.46600000   14.10100000
 C                  9.50000000    4.85300000   12.87400000
 O                  9.02700000    3.77900000   13.70000000
 H                  9.37000000    2.95500000   13.24800000
 C                  9.48000000    6.28900000   13.37000000
 O                 10.11400000    6.51800000   14.63700000
 C                 10.21500000    7.79500000   15.28300000
 O                 10.96300000    7.61400000   16.49500000
 C                 10.12300000    7.26000000   17.60300000
 C                  9.80000000    5.81700000   17.95500000
 O                  9.05700000    5.08000000   16.97300000
 H                  9.58000000    5.08000000   16.12100000
 C                  9.04400000    5.66400000   19.26500000
 O                  8.86800000    4.29200000   19.64700000
 H                  8.06400000    4.04500000   19.10400000
 C                 11.10200000    9.31200000   18.54300000
 O                 10.35500000   10.53800000   18.56300000
 H                  9.54600000   10.45700000   17.98100000
 C                 10.68300000    7.88800000   18.86900000
 O                  9.96600000    7.75000000   20.10500000
 C                  9.68200000    6.38400000   20.44100000
 O                  8.92700000    6.48600000   21.65800000
 H                  9.52859175    6.54848306   22.40350871
 H                 10.60731082    5.89539234   20.66452281
 H                  8.07068712    6.08471244   19.12160165
 H                 10.73690932    5.31451067   18.07585279
 H                  9.18190546    7.73469679   17.41886955
 H                 11.60146155    7.36672176   19.04103887
 H                 10.84000135    9.39206693   19.57733360
 H                 10.35695440    9.12677898   17.79768112
 H                 10.51350976    4.62580945   12.61693501
 H                  8.92753438    4.82703946   11.97039103
 H                  9.71798036    7.41063810   10.46817794
 H                  8.46069021    6.60672132   13.44043241
 H                 11.07824531    6.69511638   12.01525113
 H                  9.62632217    9.12136486   12.87882981
 H                 11.97315321    8.08029829   14.25773626
 H                  9.25502804    8.23316237   15.46010894

 1 2 1.0 40 1.0
 2 3 1.0 12 1.0 42 1.0
 3 4 1.0 6 1.0 43 1.0
 4 5 1.0
 5
 6 7 1.0 14 1.0 44 1.0
 7 8 1.0
 8
 9 10 1.0 12 1.0 38 1.0 39 1.0
 10 11 1.0
 11
 12 13 1.0 41 1.0
 13 14 1.0
 14 15 1.0 45 1.0
 15 16 1.0
 16 17 1.0 26 1.0 34 1.0
 17 18 1.0 20 1.0 33 1.0
 18 19 1.0
 19
 20 21 1.0 28 1.0 32 1.0
 21 22 1.0
 22
 23 24 1.0 26 1.0 36 1.0 37 1.0
 24 25 1.0
 25
 26 27 1.0 35 1.0
 27 28 1.0
 28 29 1.0 31 1.0
 29 30 1.0
 30
 31
 32
 33
 34
 35
 36
 37
 38
 39
 40
 41
 42
 43
 44
 45

