# freq=raman b3lyp/6-31+g(2d,p) geom=connectivity

290 5902/5902.com

0 1
 O                  7.46500000    7.65600000   12.46600000
 C                  8.20800000    7.97400000   13.65200000
 C                  7.79800000    9.33400000   14.19200000
 O                  8.24800000   10.35600000   13.29100000
 H                  7.76300000   10.16900000   12.43600000
 C                  8.26100000    9.72300000   15.58700000
 O                  7.64200000   10.87700000   16.17300000
 H                  8.14600000   11.10300000   17.00700000
 C                  8.49200000    5.57200000   14.31600000
 O                  7.88700000    4.81300000   13.25900000
 H                  7.93700000    3.87500000   13.60400000
 C                  7.96500000    6.93500000   14.73500000
 O                  8.42200000    7.23100000   16.06300000
 C                  8.04600000    8.54000000   16.51600000
 O                  8.94400000    8.81100000   17.60200000
 C                  8.42400000    8.50700000   18.90400000
 C                  8.99300000    7.20600000   19.44700000
 O                  8.65600000    6.21000000   18.47100000
 H                  8.64900000    6.60900000   17.55400000
 C                  8.59000000    6.73100000   20.83400000
 O                  9.36900000    5.60200000   21.25600000
 H                  9.04000000    5.16200000   22.09100000
 C                  8.22600000   10.84200000   19.57700000
 O                  8.93500000   11.64400000   18.62100000
 H                  8.68300000   12.60500000   18.73800000
 C                  8.81700000    9.50200000   19.98300000
 O                  8.13700000    9.13000000   21.19100000
 C                  8.77100000    7.95500000   21.71700000
 O                  8.02600000    7.71800000   22.92000000
 H                  8.63334074    7.57429443   23.64944220
 H                  9.80410524    8.13306660   21.93120982
 H                  7.55567132    6.45722867   20.82334908
 H                 10.05840932    7.30500530   19.44796397
 H                  7.35743735    8.43686388   18.85475542
 H                  9.87728342    9.55405082   20.11712599
 H                  8.11205064   11.42632243   20.46609102
 H                  7.24959679   10.65646456   19.18062471
 H                  8.07370109    7.46374605   11.74897740
 H                  8.47252727    4.95330190   15.18877344
 H                  9.51873232    5.70863050   14.04757338
 H                  6.90230033    6.83348157   14.80754940
 H                  9.25123613    7.99306046   13.41494498
 H                  6.72833897    9.36054291   14.19655676
 H                  9.31309164    9.91142522   15.53700882
 H                  7.03650535    8.53016981   16.87057569

 1 2 1.0 38 1.0
 2 3 1.0 12 1.0 42 1.0
 3 4 1.0 6 1.0 43 1.0
 4 5 1.0
 5
 6 7 1.0 14 1.0 44 1.0
 7 8 1.0
 8
 9 10 1.0 12 1.0 39 1.0 40 1.0
 10 11 1.0
 11
 12 13 1.0 41 1.0
 13 14 1.0
 14 15 1.0 45 1.0
 15 16 1.0
 16 17 1.0 26 1.0 34 1.0
 17 18 1.0 20 1.0 33 1.0
 18 19 1.0
 19
 20 21 1.0 28 1.0 32 1.0
 21 22 1.0
 22
 23 24 1.0 26 1.0 36 1.0 37 1.0
 24 25 1.0
 25
 26 27 1.0 35 1.0
 27 28 1.0
 28 29 1.0 31 1.0
 29 30 1.0
 30
 31
 32
 33
 34
 35
 36
 37
 38
 39
 40
 41
 42
 43
 44
 45

