# freq=raman b3lyp/6-31+g(2d,p) geom=connectivity

310 9644/9644.com

0 1
 O                  7.24400000    7.54700000   12.41000000
 C                  7.85000000    7.84200000   13.67700000
 C                  7.33700000    9.18200000   14.17900000
 O                  7.67800000   10.24400000   13.27700000
 H                  7.50000000    9.87200000   12.36600000
 C                  7.93200000    9.54400000   15.53000000
 O                  7.49800000   10.81000000   16.04800000
 H                  8.01500000   11.03400000   16.87500000
 C                  8.16500000    5.39000000   14.38600000
 O                  7.86000000    4.66700000   13.18400000
 H                  8.08900000    3.70400000   13.33300000
 C                  7.69600000    6.78600000   14.76000000
 O                  8.35600000    7.21000000   15.96200000
 C                  7.82400000    8.41200000   16.53800000
 O                  8.75100000    8.72600000   17.58800000
 C                  8.31700000    8.38000000   18.91100000
 C                  8.90500000    7.06600000   19.39900000
 O                  8.96100000    6.00800000   18.43000000
 H                  9.32000000    6.32300000   17.55100000
 C                  8.33500000    6.65600000   20.74700000
 O                  8.80400000    5.42500000   21.31700000
 H                  8.31800000    5.28900000   22.18000000
 C                  8.10200000   10.72200000   19.64200000
 O                  8.29300000   11.40600000   18.39500000
 H                  7.96400000   12.34800000   18.46400000
 C                  8.72100000    9.37700000   19.98500000
 O                  8.08200000    9.00800000   21.21600000
 C                  8.55700000    7.76800000   21.76000000
 O                  7.62400000    7.61900000   22.84100000
 H                  7.92931940    7.39455238   11.75525040
 H                  9.21069325    5.42973678   14.60926356
 H                  7.95568984    6.01524341   13.54329013
 H                  6.65154168    6.71592495   14.98157685
 H                  8.89936809    7.95398799   13.50040638
 H                  6.27206305    9.13302523   14.27071018
 H                  8.98045909    9.66078574   15.35112959
 H                  6.82651263    8.28264454   16.90294673
 H                  8.10397299    7.50547702   23.66461305
 H                  9.93108209    7.29269553   19.60065487
 H                  7.27764518    6.55484468   20.61789389
 H                  9.57046482    7.82912646   22.09771676
 H                  7.25029041    8.29623353   18.90728147
 H                  9.78363196    9.44299456   20.09157405
 H                  8.42154542   11.40014105   20.40548899
 H                  7.04502154   10.60109284   19.75635905

 1 2 1.0 30 1.0
 2 3 1.0 12 1.0 34 1.0
 3 4 1.0 6 1.0 35 1.0
 4 5 1.0
 5
 6 7 1.0 14 1.0 36 1.0
 7 8 1.0
 8
 9 10 1.0 12 1.0 31 1.0 32 1.0
 10 11 1.0
 11
 12 13 1.0 33 1.0
 13 14 1.0
 14 15 1.0 37 1.0
 15 16 1.0
 16 17 1.0 26 1.0 42 1.0
 17 18 1.0 20 1.0 39 1.0
 18 19 1.0
 19
 20 21 1.0 28 1.0 40 1.0
 21 22 1.0
 22
 23 24 1.0 26 1.0 44 1.0 45 1.0
 24 25 1.0
 25
 26 27 1.0 43 1.0
 27 28 1.0
 28 29 1.0 41 1.0
 29 38 1.0
 30
 31
 32
 33
 34
 35
 36
 37
 38
 39
 40
 41
 42
 43
 44
 45

