# freq=raman b3lyp/6-31+g(2d,p) geom=connectivity

300 6989/6989.com

0 1
O           7.68000         7.42900        12.14600
C           8.17400         7.72900        13.46000
C           7.72300         9.09700        13.94500
O           7.90100        10.08900        12.92400
H           7.48900         9.71400        12.09400
C           8.27700         9.47900        15.30800
O           7.80600        10.75700        15.76100
H           7.88600        10.85400        16.75300
C           8.45700         5.39100        14.15400
O           8.07300         4.65600        12.98300
H           8.39100         3.71100        12.91100
C           7.73000         6.68700        14.47500
O           8.17400         7.01700        15.79900
C           7.87000         8.34900        16.23800
O           8.54600         8.51900        17.49300
C           7.85400         8.13200        18.68900
C           8.37700         6.77300        19.12600
O           8.05800         5.74500        18.17800
H           8.42400         6.15200        17.34200
C           7.89300         6.39000        20.51500
O           8.59100         5.22200        20.97100
H           8.26900         5.01000        21.89300
C           7.48000        10.51900        19.43600
O           7.91100        11.28900        18.30400
H           8.00700        12.23500        18.61300
C           8.10700         9.17400        19.76600
O           7.59300         8.73900        21.03300
C           8.16900         7.51200        21.50300
O           7.48600         7.29200        22.74600

