# freq=raman b3lyp/6-31+g(2d,p) geom=connectivity

450 7777/7777.com

0 1
 O                 10.65700000    7.79800000   11.70400000
 C                 11.37400000    7.66600000   12.93900000
 C                 11.73200000    9.07000000   13.39700000
 O                 12.71700000    9.68700000   12.55600000
 H                 12.68500000    9.38200000   11.60400000
 C                 12.46900000    9.04500000   14.72600000
 O                 12.79400000   10.36000000   15.20200000
 H                 12.40600000   11.07100000   14.61600000
 C                 10.33700000    5.44900000   13.56500000
 O                  9.60400000    4.47600000   14.32200000
 H                  9.70200000    3.58700000   13.87500000
 C                 10.68500000    6.85600000   14.02500000
 O                 11.39000000    6.91200000   15.27400000
 C                 11.59900000    8.26700000   15.69900000
 O                 12.21500000    8.08300000   16.98200000
 C                 11.45900000    8.37500000   18.16600000
 C                 10.59100000    7.19500000   18.57200000
 O                  9.54300000    6.98700000   17.61500000
 H                 10.00600000    6.60300000   16.81700000
 C                  9.87500000    7.41900000   19.89400000
 O                  8.97700000    6.38000000   20.31000000
 H                  8.14400000    6.61400000   19.80900000
 C                 13.07600000   10.07700000   19.05200000
 O                 13.61600000   10.87100000   20.11800000
 H                 14.28300000   10.17300000   20.37900000
 C                 12.43900000    8.71500000   19.27700000
 O                 11.65600000    8.86800000   20.46900000
 C                 10.95400000    7.70200000   20.92600000
 O                 10.33400000    8.26700000   22.09000000
 H                 11.01194512    8.56380520   22.70147125
 H                 12.33794444   10.68114968   18.56704932
 H                 13.87075481    9.92859067   18.35111523
 H                 13.17938408    7.95135148   19.39350046
 H                 11.59253721    6.86948646   21.13597962
 H                  9.29367110    8.31129478   19.79023713
 H                 11.19444761    6.31384451   18.63769613
 H                 10.83247800    9.22238181   17.98075892
 H                 11.26892074    4.98443470   13.31882362
 H                  9.80092847    5.56730764   12.64656077
 H                  9.74822995    7.34255988   14.19998956
 H                 11.28087584    7.87554446   10.97848929
 H                 12.29245011    7.16492687   12.71477886
 H                 10.85677142    9.68192727   13.46348268
 H                 13.38302021    8.50541642   14.59066112
 H                 10.65630994    8.75929358   15.81682396

 1 2 1.0 41 1.0
 2 3 1.0 12 1.0 42 1.0
 3 4 1.0 6 1.0 43 1.0
 4 5 1.0
 5
 6 7 1.0 14 1.0 44 1.0
 7 8 1.0
 8
 9 10 1.0 12 1.0 38 1.0 39 1.0
 10 11 1.0
 11
 12 13 1.0 40 1.0
 13 14 1.0
 14 15 1.0 45 1.0
 15 16 1.0
 16 17 1.0 26 1.0 37 1.0
 17 18 1.0 20 1.0 36 1.0
 18 19 1.0
 19
 20 21 1.0 28 1.0 35 1.0
 21 22 1.0
 22
 23 24 1.0 26 1.0 31 1.0 32 1.0
 24 25 1.0
 25
 26 27 1.0 33 1.0
 27 28 1.0
 28 29 1.0 34 1.0
 29 30 1.0
 30
 31
 32
 33
 34
 35
 36
 37
 38
 39
 40
 41
 42
 43
 44
 45

