# freq=raman b3lyp/6-31+g(2d,p) geom=connectivity

450 7777/7777.com

0 1
O          10.65700         7.79800        11.70400
C          11.37400         7.66600        12.93900
C          11.73200         9.07000        13.39700
O          12.71700         9.68700        12.55600
H          12.68500         9.38200        11.60400
C          12.46900         9.04500        14.72600
O          12.79400        10.36000        15.20200
H          12.40600        11.07100        14.61600
C          10.33700         5.44900        13.56500
O           9.60400         4.47600        14.32200
H           9.70200         3.58700        13.87500
C          10.68500         6.85600        14.02500
O          11.39000         6.91200        15.27400
C          11.59900         8.26700        15.69900
O          12.21500         8.08300        16.98200
C          11.45900         8.37500        18.16600
C          10.59100         7.19500        18.57200
O           9.54300         6.98700        17.61500
H          10.00600         6.60300        16.81700
C           9.87500         7.41900        19.89400
O           8.97700         6.38000        20.31000
H           8.14400         6.61400        19.80900
C          13.07600        10.07700        19.05200
O          13.61600        10.87100        20.11800
H          14.28300        10.17300        20.37900
C          12.43900         8.71500        19.27700
O          11.65600         8.86800        20.46900
C          10.95400         7.70200        20.92600
O          10.33400         8.26700        22.09000

