# freq=raman b3lyp/6-31+g(2d,p) geom=connectivity

550 7946/7946.com

0 1
O           9.82300         7.47100        10.84200
C          10.64800         7.38000        12.01300
C          10.62900         8.77500        12.61500
O          11.40400         9.61400        11.74700
H          10.98800         9.46400        10.85100
C          11.07100         8.85800        14.06700
O          10.80100        10.19300        14.51900
H          11.03800        10.92100        13.87600
C           9.55000         5.14300        12.41200
O           9.13300         4.09600        13.29900
H           9.21400         3.17900        12.90900
C           9.88700         6.50500        12.99600
O          10.62200         6.42000        14.22600
C          10.44900         7.70600        14.83900
O          10.84600         7.60800        16.21500
C          10.25800         8.34500        17.29600
C           9.01200         7.77700        17.95600
O           8.16200         8.82600        18.44200
H           8.13900         9.52000        17.72200
C           9.42600         6.64000        18.87700
O           9.73700         5.30400        18.45800
H           9.56900         5.22300        17.47600
C          11.68900        10.12000        18.10600
O          10.81700        11.19600        18.48400
H          10.32100        11.52600        17.68100
C          11.30000         8.67200        18.35300
O          10.94700         8.34000        19.70300
C          10.55700         6.96600        19.83900
O           9.94400         6.85100        21.13100

