# freq=raman b3lyp/6-31+g(2d,p) geom=connectivity

423 6000/6000.com

0 1
 O                  8.17200000    7.37900000   12.47900000
 C                  8.70400000    7.89500000   13.70700000
 C                  8.00600000    9.15900000   14.18200000
 O                  8.32600000   10.16300000   13.20700000
 H                  7.81900000    9.94100000   12.37500000
 C                  8.39000000    9.66200000   15.56400000
 O                  7.62200000   10.78100000   16.02900000
 H                  8.00300000   11.00400000   16.92700000
 C                  8.97400000    5.45300000   14.59100000
 O                  8.34600000    4.88800000   13.43100000
 H                  8.43900000    3.89300000   13.46900000
 C                  8.56700000    6.89500000   14.84300000
 O                  9.05800000    7.41900000   16.08600000
 C                  8.23700000    8.50500000   16.53800000
 O                  8.83400000    8.90200000   17.78100000
 C                  8.17600000    8.42000000   18.96200000
 C                  8.72600000    7.10800000   19.50000000
 O                  8.62200000    6.08100000   18.50400000
 H                  8.76200000    6.47700000   17.59600000
 C                  8.16700000    6.66000000   20.84000000
 O                  8.91700000    5.56300000   21.38200000
 H                  8.49500000    5.37100000   22.26900000
 C                  7.89800000   10.90200000   19.63500000
 O                  8.42600000   11.70000000   18.56500000
 H                  8.10200000   12.63900000   18.68200000
 C                  8.39400000    9.51200000   19.99600000
 O                  7.77500000    9.07500000   21.21400000
 C                  8.33100000    7.86600000   21.75100000
 O                  7.54000000    7.52800000   22.90000000
 H                  8.11889711    7.31187716   23.63468977
 H                  9.35672148    8.00339621   22.02287816
 H                  7.13349286    6.39908120   20.74681003
 H                  9.77246714    7.26771875   19.65587314
 H                  7.12872756    8.31534445   18.76921088
 H                  9.44685587    9.58244945   20.17328899
 H                  7.99612232   11.49215699   20.52212273
 H                  6.85013151   10.80284737   19.44254121
 H                  8.89384498    7.13383054   11.89553470
 H                 10.03536172    5.41285729   14.46138575
 H                  8.70881577    4.86642791   15.44569908
 H                  7.50944782    6.83131701   14.99275935
 H                  9.74227641    8.11084317   13.56454365
 H                  6.94948416    8.99060921   14.16414440
 H                  9.42048145    9.94925185   15.54176596
 H                  7.21502174    8.21223233   16.65943940

 1 2 1.0 38 1.0
 2 3 1.0 12 1.0 42 1.0
 3 4 1.0 6 1.0 43 1.0
 4 5 1.0
 5
 6 7 1.0 14 1.0 44 1.0
 7 8 1.0
 8
 9 10 1.0 12 1.0 39 1.0 40 1.0
 10 11 1.0
 11
 12 13 1.0 41 1.0
 13 14 1.0
 14 15 1.0 45 1.0
 15 16 1.0
 16 17 1.0 26 1.0 34 1.0
 17 18 1.0 20 1.0 33 1.0
 18 19 1.0
 19
 20 21 1.0 28 1.0 32 1.0
 21 22 1.0
 22
 23 24 1.0 26 1.0 36 1.0 37 1.0
 24 25 1.0
 25
 26 27 1.0 35 1.0
 27 28 1.0
 28 29 1.0 31 1.0
 29 30 1.0
 30
 31
 32
 33
 34
 35
 36
 37
 38
 39
 40
 41
 42
 43
 44
 45

