# freq=raman b3lyp/6-31+g(2d,p) geom=connectivity

493 5628/5628.com

0 1
O           7.98100         7.40700        12.13100
C           8.53000         7.87300        13.37200
C           7.85300         9.14500        13.85700
O           8.16100        10.18300        12.91500
H           7.89200         9.88600        11.99900
C           8.35200         9.60000        15.21800
O           7.70800        10.80800        15.65000
H           8.12500        11.03400        16.53000
C           8.96800         5.51600        14.00900
O           8.56400         4.80600        12.82900
H           8.42600         3.85100        13.09400
C           8.22100         6.78500        14.38600
O           8.63000         7.14300        15.71500
C           8.09100         8.40800        16.12500
O           8.77400         8.69200        17.35500
C           8.10200         8.38800        18.58500
C           8.65300         7.09900        19.17300
O           8.30600         6.04300        18.26500
H           8.49900         6.39500        17.34900
C           8.19200         6.70300        20.56600
O           8.98900         5.64500        21.11600
H           8.54600         5.41900        21.98400
C           7.89500        10.85200        19.46300
O           8.30100        11.55100        18.27700
H           8.20300        12.52600        18.47500
C           8.37700         9.42400        19.66300
O           7.76000         9.07400        20.91000
C           8.37300         7.90700        21.47600
O           7.63100         7.62600        22.67200

