# freq=raman b3lyp/6-31+g(2d,p) geom=connectivity

493 5628/5628.com

0 1
 O                  7.98100000    7.40700000   12.13100000
 C                  8.53000000    7.87300000   13.37200000
 C                  7.85300000    9.14500000   13.85700000
 O                  8.16100000   10.18300000   12.91500000
 H                  7.89200000    9.88600000   11.99900000
 C                  8.35200000    9.60000000   15.21800000
 O                  7.70800000   10.80800000   15.65000000
 H                  8.12500000   11.03400000   16.53000000
 C                  8.96800000    5.51600000   14.00900000
 O                  8.56400000    4.80600000   12.82900000
 H                  8.42600000    3.85100000   13.09400000
 C                  8.22100000    6.78500000   14.38600000
 O                  8.63000000    7.14300000   15.71500000
 C                  8.09100000    8.40800000   16.12500000
 O                  8.77400000    8.69200000   17.35500000
 C                  8.10200000    8.38800000   18.58500000
 C                  8.65300000    7.09900000   19.17300000
 O                  8.30600000    6.04300000   18.26500000
 H                  8.49900000    6.39500000   17.34900000
 C                  8.19200000    6.70300000   20.56600000
 O                  8.98900000    5.64500000   21.11600000
 H                  8.54600000    5.41900000   21.98400000
 C                  7.89500000   10.85200000   19.46300000
 O                  8.30100000   11.55100000   18.27700000
 H                  8.20300000   12.52600000   18.47500000
 C                  8.37700000    9.42400000   19.66300000
 O                  7.76000000    9.07400000   20.91000000
 C                  8.37300000    7.90700000   21.47600000
 O                  7.63100000    7.62600000   22.67200000
 H                  8.24032401    7.45632542   23.39417365
 H                  9.40659924    8.07796704   21.69358417
 H                  7.16238307    6.41271865   20.54307134
 H                  9.71978180    7.17940059   19.19330581
 H                  7.04877739    8.29760875   18.41931491
 H                  9.43534809    9.45605538   19.81718095
 H                  8.22559653   11.42481145   20.30412601
 H                  8.69477669    7.18132467   11.53000625
 H                  8.89033776    4.83942271   14.83429495
 H                 10.00029152    5.77248608   13.89285740
 H                  7.16914030    6.58884510   14.38220146
 H                  9.58675517    8.01720237   13.28612686
 H                  6.79399988    8.99651018   13.89400709
 H                  9.40692656    9.77017408   15.16258568
 H                  7.04090994    8.31335190   16.30735295
 H                  6.82521792   10.83642474   19.47795736

 1 2 1.0 37 1.0
 2 3 1.0 12 1.0 41 1.0
 3 4 1.0 6 1.0 42 1.0
 4 5 1.0
 5
 6 7 1.0 14 1.0 43 1.0
 7 8 1.0
 8
 9 10 1.0 12 1.0 38 1.0 39 1.0
 10 11 1.0
 11
 12 13 1.0 40 1.0
 13 14 1.0
 14 15 1.0 44 1.0
 15 16 1.0
 16 17 1.0 26 1.0 34 1.0
 17 18 1.0 20 1.0 33 1.0
 18 19 1.0
 19
 20 21 1.0 28 1.0 32 1.0
 21 22 1.0
 22
 23 24 1.0 26 1.0 36 1.0 45 1.0
 24 25 1.0
 25
 26 27 1.0 35 1.0
 27 28 1.0
 28 29 1.0 31 1.0
 29 30 1.0
 30
 31
 32
 33
 34
 35
 36
 37
 38
 39
 40
 41
 42
 43
 44
 45

