# freq=raman b3lyp/6-31+g(2d,p) geom=connectivity

290 5882/5882.com

0 1
 O                  7.71900000    7.68600000   12.42100000
 C                  8.25500000    7.97100000   13.72100000
 C                  7.71100000    9.30900000   14.19600000
 O                  7.85700000   10.36000000   13.23100000
 H                  7.42300000   10.01300000   12.40000000
 C                  8.19500000    9.61000000   15.60500000
 O                  7.38800000   10.70800000   16.05800000
 H                  7.77400000   10.92300000   16.95500000
 C                  8.48800000    5.49600000   14.39300000
 O                  8.06300000    4.85000000   13.18400000
 H                  8.04800000    3.87600000   13.41100000
 C                  7.93900000    6.87400000   14.72500000
 O                  8.62700000    7.23500000   15.93100000
 C                  7.99600000    8.39400000   16.49400000
 O                  8.80600000    8.66600000   17.64700000
 C                  8.28400000    8.29000000   18.93000000
 C                  8.83800000    6.96800000   19.43500000
 O                  8.82300000    5.98400000   18.39000000
 H                  8.98400000    6.47700000   17.53500000
 C                  8.44700000    6.53300000   20.83800000
 O                  9.12200000    5.35900000   21.31300000
 H                  8.71000000    5.19300000   22.20900000
 C                  8.03000000   10.68300000   19.79400000
 O                  8.10200000   11.34100000   18.52100000
 H                  7.88900000   12.30900000   18.65100000
 C                  8.60500000    9.29500000   20.02400000
 O                  8.01600000    8.84100000   21.25200000
 C                  8.70900000    7.69900000   21.77600000
 O                  7.77300000    7.53900000   22.85200000
 H                  8.25037354    7.41649636   23.67583698
 H                  9.72459801    7.86461952   22.06931017
 H                  7.39576887    6.33349815   20.84148206
 H                  9.88157297    7.17664076   19.54601572
 H                  7.22049651    8.20380837   18.84980444
 H                  9.66610103    9.36471985   20.14275918
 H                  8.50268002   11.33172433   20.50155237
 H                  6.99349133   10.63248458   20.05476420
 H                  8.43901816    7.55002653   11.80077016
 H                  8.23936325    4.84757263   15.20701580
 H                  9.55428533    5.57666759   14.35520668
 H                  6.88488371    6.82238129   14.90127919
 H                  9.31854675    8.05151076   13.63563995
 H                  6.65478835    9.16557218   14.28951687
 H                  9.22706565    9.89191685   15.58877078
 H                  6.96955660    8.22642037   16.74545776

 1 2 1.0 38 1.0
 2 3 1.0 12 1.0 42 1.0
 3 4 1.0 6 1.0 43 1.0
 4 5 1.0
 5
 6 7 1.0 14 1.0 44 1.0
 7 8 1.0
 8
 9 10 1.0 12 1.0 39 1.0 40 1.0
 10 11 1.0
 11
 12 13 1.0 41 1.0
 13 14 1.0
 14 15 1.0 45 1.0
 15 16 1.0
 16 17 1.0 26 1.0 34 1.0
 17 18 1.0 20 1.0 33 1.0
 18 19 1.0
 19
 20 21 1.0 28 1.0 32 1.0
 21 22 1.0
 22
 23 24 1.0 26 1.0 36 1.0 37 1.0
 24 25 1.0
 25
 26 27 1.0 35 1.0
 27 28 1.0
 28 29 1.0 31 1.0
 29 30 1.0
 30
 31
 32
 33
 34
 35
 36
 37
 38
 39
 40
 41
 42
 43
 44
 45

