# freq=raman b3lyp/6-31+g(2d,p) geom=connectivity

473 5014/5014.com

0 1
O           7.99700         7.76700        12.31100
C           8.66300         8.03100        13.55400
C           7.97400         9.30800        14.00700
O           8.06700        10.39300        13.07200
H           8.00400        10.09200        12.12100
C           8.45600         9.76300        15.37500
O           7.83700        10.98400        15.80500
H           8.19400        11.32300        16.67500
C           9.26700         5.83500        14.38800
O           9.24700         5.04900        13.18700
H           9.60600         4.15900        13.46600
C           8.35200         7.02100        14.64700
O           8.69300         7.43700        15.97700
C           8.17200         8.69800        16.42200
O           8.98300         8.93100        17.58200
C           8.41300         8.62600        18.86300
C           8.76500         7.22500        19.33700
O           8.56400         6.15100        18.40700
H           8.59100         6.63300        17.53100
C           7.99500         6.87700        20.60000
O           8.45800         5.62400        21.12500
H           8.01800         5.40700        21.99600
C           8.32000        11.03700        19.60300
O           8.58600        11.62800        18.32300
H           8.42500        12.60800        18.43500
C           8.68900         9.61300        19.98600
O           7.94700         9.21800        21.14900
C           8.29200         7.92300        21.66300
O           7.40600         7.78300        22.78300

