# freq=raman b3lyp/6-31+g(d,p) geom=connectivity

320 6000.com

0 1
 O                  7.84000000    7.56500000   22.83900000
 C                  8.37600000    7.94000000   24.11700000
 C                  7.86600000    9.28700000   24.60100000
 O                  8.07700000   10.30700000   23.61300000
 H                  7.85100000    9.84800000   22.75400000
 C                  8.48300000    9.53100000   25.96800000
 O                  8.07900000   10.81000000   26.47800000
 H                  8.28700000   10.87800000   27.45400000
 C                  8.69700000    5.51700000   24.74600000
 O                  8.48800000    4.88200000   23.47700000
 H                  8.55100000    3.89500000   23.62600000
 C                  8.06800000    6.84700000   25.12700000
 O                  8.63100000    7.21500000   26.39500000
 C                  8.23700000    8.45100000   27.00800000
 O                  9.06100000    8.65600000   28.16400000
 C                  8.45800000    8.47800000   29.45400000
 C                  9.06300000    7.14300000   29.85500000
 O                  8.73100000    6.01500000   29.03200000
 H                  8.72300000    6.34700000   28.08900000
 C                  8.48600000    6.94800000   31.24800000
 O                  9.03600000    5.76400000   31.84200000
 H                  8.57400000    5.43500000   32.66600000
 C                  8.10100000   10.92800000   30.15900000
 O                  8.71200000   11.53200000   29.01000000
 H                  8.67200000   12.51800000   29.17200000
 C                  8.75700000    9.58700000   30.44900000
 O                  8.35800000    9.32900000   31.80300000
 C                  8.82500000    8.04500000   32.24400000
 O                  7.97700000    8.09700000   33.40000000
 H                  8.51790142    8.13264025   34.19231018
 H                  9.86292518    8.06334558   32.50337379
 H                  7.42283156    6.84855896   31.17955766
 H                 10.12686902    7.23773878   29.91908799
 H                  7.39905869    8.37227804   29.34279669
 H                  9.81621792    9.73851043   30.44759007
 H                  8.22073556   11.57228531   31.00484859
 H                  7.05827171   10.77985832   29.97013030
 H                  8.56018468    7.38627613   22.22990904
 H                  8.38919805    4.81287182   25.49055454
 H                  9.75450602    5.64181032   24.85089708
 H                  7.00855456    6.73132867   25.22237030
 H                  9.43941122    8.00792686   24.01982739
 H                  6.80903540    9.19735313   24.74131845
 H                  9.54181913    9.57779522   25.82098893
 H                  7.20324449    8.42134711   27.28253645

 1 2 1.0 38 1.0
 2 3 1.0 12 1.0 42 1.0
 3 4 1.0 6 1.0 43 1.0
 4 5 1.0
 5
 6 7 1.0 14 1.0 44 1.0
 7 8 1.0
 8
 9 10 1.0 12 1.0 39 1.0 40 1.0
 10 11 1.0
 11
 12 13 1.0 41 1.0
 13 14 1.0
 14 15 1.0 45 1.0
 15 16 1.0
 16 17 1.0 26 1.0 34 1.0
 17 18 1.0 20 1.0 33 1.0
 18 19 1.0
 19
 20 21 1.0 28 1.0 32 1.0
 21 22 1.0
 22
 23 24 1.0 26 1.0 36 1.0 37 1.0
 24 25 1.0
 25
 26 27 1.0 35 1.0
 27 28 1.0
 28 29 1.0 31 1.0
 29 30 1.0
 30
 31
 32
 33
 34
 35
 36
 37
 38
 39
 40
 41
 42
 43
 44
 45

