# freq=raman b3lyp/6-31+g(2d,p) geom=connectivity
350 7000.com
350 7000.com
C           8.47900         8.03500         2.86500
0 1
O           7.91900        10.28200        23.54200
H           7.57800         9.98100        22.65200
C           8.48500         9.54500        25.82800
O           8.00900        10.82300        26.27500
H           8.30700        10.85500        27.23000
C           8.40400         5.35200        24.64300
O           7.70600         4.64400        23.60900
H           7.87800         3.71200        23.92800
C           8.05700         6.77100        25.06500
O           8.57300         7.17000        26.34400
C           8.13300         8.44900        26.82100
O           8.93600         8.55400        28.00500
C           8.25300         8.25000        29.23000
C           8.95900         7.01100        29.75700
O           8.70300         5.89400        28.89400
H           9.16500         6.16700        28.05000
C           8.45100         6.56100        31.11700
O           9.14900         5.48300        31.75600
H           8.70700         5.15900        32.59200
C           8.26600        10.79600        29.98500
O           8.75500        11.43400        28.79600
H           8.81200        12.41100        28.99900
C           8.52200         9.32500        30.27000
O           7.85900         8.97200        31.49300
C           8.48800         7.79000        32.01000
O           7.77100         7.56700        33.23300
C           8.41400         7.75600        34.50200
C           8.02600         9.12600        35.03600
O           8.27300        10.24600        34.17300

