# freq=raman b3lyp/6-31+g(2d,p) geom=connectivity

280 7737/7737.com

0 1
 O                  7.44500000    7.77500000   12.09200000
 C                  8.11200000    8.14000000   13.30900000
 C                  7.63200000    9.47100000   13.86500000
 O                  7.65300000   10.40300000   12.77400000
 H                  7.28000000    9.95000000   11.96400000
 C                  8.27300000    9.82900000   15.19600000
 O                  7.62100000   10.99300000   15.72300000
 H                  8.04600000   11.20900000   16.60200000
 C                  8.52300000    5.62200000   13.93200000
 O                  7.94700000    4.83000000   12.88400000
 H                  8.13800000    3.89000000   13.16500000
 C                  7.99800000    6.99900000   14.30700000
 O                  8.65300000    7.43600000   15.50600000
 C                  8.15900000    8.63200000   16.12700000
 O                  8.96200000    8.80700000   17.30300000
 C                  8.41500000    8.44900000   18.58000000
 C                  9.10900000    7.24300000   19.19300000
 O                  9.24400000    6.11600000   18.31600000
 H                  9.49900000    6.43700000   17.40400000
 C                  8.50500000    6.75400000   20.50000000
 O                  9.04300000    5.53300000   21.02900000
 H                  8.67100000    5.34600000   21.93800000
 C                  8.16400000   10.90500000   19.24300000
 O                  8.84000000   11.64600000   18.21700000
 H                  8.72900000   12.61000000   18.45700000
 C                  8.53300000    9.49600000   19.67600000
 O                  7.84700000    9.07000000   20.86200000
 C                  8.56300000    7.96000000   21.42200000
 O                  7.87200000    7.61800000   22.63200000
 H                  8.51109640    7.42316095   23.32134283
 H                  8.09764219    7.57274932   11.41764635
 H                  8.48080304    5.02776089   14.82081905
 H                  9.55676330    5.74707302   13.68584928
 H                  6.95876047    6.88522598   14.53489619
 H                  9.15048516    8.25335564   13.07748527
 H                  6.59559036    9.32934272   14.09014058
 H                  9.30773188   10.05035972   15.03716108
 H                  7.13616691    8.49322415   16.40887539
 H                  8.21271913   11.50842750   20.12527076
 H                  7.13536175   10.86542930   18.95104536
 H                  9.57064128    9.53348006   19.93444886
 H                  7.37967850    8.21332198   18.44784378
 H                 10.10369692    7.56213785   19.42457950
 H                  7.46950545    6.56593391   20.30691408
 H                  9.57735436    8.22983283   21.62978709

 1 2 1.0 31 1.0
 2 3 1.0 12 1.0 35 1.0
 3 4 1.0 6 1.0 36 1.0
 4 5 1.0
 5
 6 7 1.0 14 1.0 37 1.0
 7 8 1.0
 8
 9 10 1.0 12 1.0 32 1.0 33 1.0
 10 11 1.0
 11
 12 13 1.0 34 1.0
 13 14 1.0
 14 15 1.0 38 1.0
 15 16 1.0
 16 17 1.0 26 1.0 42 1.0
 17 18 1.0 20 1.0 43 1.0
 18 19 1.0
 19
 20 21 1.0 28 1.0 44 1.0
 21 22 1.0
 22
 23 24 1.0 26 1.0 39 1.0 40 1.0
 24 25 1.0
 25
 26 27 1.0 41 1.0
 27 28 1.0
 28 29 1.0 45 1.0
 29 30 1.0
 30
 31
 32
 33
 34
 35
 36
 37
 38
 39
 40
 41
 42
 43
 44
 45

