# freq=raman b3lyp/6-31+g(2d,p) geom=connectivity

280 7737/7737.com

0 1
O           7.44500         7.77500        12.09200
C           8.11200         8.14000        13.30900
C           7.63200         9.47100        13.86500
O           7.65300        10.40300        12.77400
H           7.28000         9.95000        11.96400
C           8.27300         9.82900        15.19600
O           7.62100        10.99300        15.72300
H           8.04600        11.20900        16.60200
C           8.52300         5.62200        13.93200
O           7.94700         4.83000        12.88400
H           8.13800         3.89000        13.16500
C           7.99800         6.99900        14.30700
O           8.65300         7.43600        15.50600
C           8.15900         8.63200        16.12700
O           8.96200         8.80700        17.30300
C           8.41500         8.44900        18.58000
C           9.10900         7.24300        19.19300
O           9.24400         6.11600        18.31600
H           9.49900         6.43700        17.40400
C           8.50500         6.75400        20.50000
O           9.04300         5.53300        21.02900
H           8.67100         5.34600        21.93800
C           8.16400        10.90500        19.24300
O           8.84000        11.64600        18.21700
H           8.72900        12.61000        18.45700
C           8.53300         9.49600        19.67600
O           7.84700         9.07000        20.86200
C           8.56300         7.96000        21.42200
O           7.87200         7.61800        22.63200

