# freq=raman b3lyp/6-31+g(d,p) geom=connectivity

400 8000.com

0 1
 O                  9.50500000    7.94300000   22.68100000
 C                 10.23700000    8.03700000   23.91100000
 C                 10.27800000    9.46600000   24.42700000
 O                 10.96000000   10.25400000   23.44100000
 H                 10.52900000   10.17200000   22.54200000
 C                 10.95500000    9.58800000   25.78300000
 O                 10.44800000   10.88100000   26.14300000
 H                 10.76200000   11.13500000   27.05800000
 C                  9.60200000    5.64000000   24.79600000
 O                  9.13300000    5.07100000   23.56400000
 H                  8.93800000    4.09900000   23.69700000
 C                  9.68500000    7.14300000   25.01000000
 O                 10.39200000    7.36300000   26.23900000
 C                 10.34400000    8.67000000   26.82900000
 O                 11.22900000    8.57600000   27.95500000
 C                 10.61100000    8.33300000   29.22700000
 C                 10.57500000    6.84900000   29.55100000
 O                  9.75500000    6.14400000   28.60900000
 H                 10.06100000    6.36700000   27.68400000
 C                 10.01400000    6.59900000   30.94200000
 O                 10.54100000    5.36000000   31.43700000
 H                 10.34600000    5.37500000   32.41700000
 C                 11.82400000   10.49200000   30.02900000
 O                 10.95600000   11.50100000   29.49300000
 H                 11.37700000   12.36300000   29.20800000
 C                 11.25100000    9.12300000   30.35700000
 O                 10.46300000    8.95500000   31.54400000
 C                 10.52600000    7.58800000   31.97600000
 O                  9.53800000    7.71900000   33.00900000
 H                  9.97431727    7.82658030   33.85732407
 H                 10.12007462    7.88683428   21.94606556
 H                  8.97506853    5.25295937   25.57192299
 H                 10.58532270    5.25120012   24.95974101
 H                  8.68064980    7.47198574   25.17717973
 H                 11.24334230    7.73061828   23.71528231
 H                  9.27387064    9.82495554   24.51517682
 H                 12.02345327    9.55115694   25.73883897
 H                  9.35160858    8.95922902   27.10541608
 H                 12.61789318   10.34668702   29.32649181
 H                 12.25269312   10.88323099   30.92792187
 H                 12.13197015    8.55645168   30.57566548
 H                  9.59589976    8.66247115   29.15005675
 H                 11.57059430    6.45984276   29.50358020
 H                  8.94427132    6.57956718   30.92775534
 H                 11.48723554    7.32490529   32.36549635

 1 2 1.0 31 1.0
 2 3 1.0 12 1.0 35 1.0
 3 4 1.0 6 1.0 36 1.0
 4 5 1.0
 5
 6 7 1.0 14 1.0 37 1.0
 7 8 1.0
 8
 9 10 1.0 12 1.0 32 1.0 33 1.0
 10 11 1.0
 11
 12 13 1.0 34 1.0
 13 14 1.0
 14 15 1.0 38 1.0
 15 16 1.0
 16 17 1.0 26 1.0 42 1.0
 17 18 1.0 20 1.0 43 1.0
 18 19 1.0
 19
 20 21 1.0 28 1.0 44 1.0
 21 22 1.0
 22
 23 24 1.0 26 1.0 39 1.0 40 1.0
 24 25 1.0
 25
 26 27 1.0 41 1.0
 27 28 1.0
 28 29 1.0 45 1.0
 29 30 1.0
 30
 31
 32
 33
 34
 35
 36
 37
 38
 39
 40
 41
 42
 43
 44
 45

