# freq=raman b3lyp/6-31+g(2d,p) geom=connectivity

473 10000/10000.com

0 1
 O                  7.56900000    7.80400000   12.12500000
 C                  8.15600000    8.06000000   13.40900000
 C                  7.62400000    9.42200000   13.82500000
 O                  8.06500000   10.43200000   12.90700000
 H                  7.67200000   10.14100000   12.03500000
 C                  8.09100000    9.77900000   15.22700000
 O                  7.50200000   11.00500000   15.68500000
 H                  7.74200000   11.16400000   16.64200000
 C                  8.02500000    5.57400000   14.15400000
 O                  7.63200000    4.87300000   12.96500000
 H                  7.84300000    3.91600000   13.16100000
 C                  7.65500000    7.02700000   14.40500000
 O                  8.06400000    7.44400000   15.71600000
 C                  7.63000000    8.71800000   16.21300000
 O                  8.45100000    8.89600000   17.37700000
 C                  8.02800000    8.37500000   18.64600000
 C                  8.68500000    7.05900000   19.03100000
 O                  8.34100000    6.03000000   18.09200000
 H                  8.54400000    6.37300000   17.17400000
 C                  8.30600000    6.66200000   20.44800000
 O                  8.99300000    5.49500000   20.92300000
 H                  8.60200000    5.23300000   21.80500000
 C                  7.80400000   10.73700000   19.49900000
 O                  8.11700000   11.50700000   18.32900000
 H                  8.03400000   12.48700000   18.50700000
 C                  8.37500000    9.35200000   19.75700000
 O                  7.87200000    9.04500000   21.06600000
 C                  8.42700000    7.78400000   21.46700000
 O                  7.59200000    7.53300000   22.60600000
 H                  8.14165953    7.36361906   23.37462507
 H                  9.44536520    7.90507139   21.77224422
 H                  7.26842629    6.40286290   20.41352158
 H                  9.74566221    7.19616064   18.99809649
 H                  6.96703544    8.23776658   18.62547724
 H                  9.44058938    9.43013287   19.81457193
 H                  8.07704729   11.33912784   20.34030092
 H                  8.26397540    7.67450616   11.47550748
 H                  7.64061711    5.01352504   14.98044880
 H                  9.09235415    5.51741336   14.20352839
 H                  6.58632962    7.07607529   14.38413786
 H                  9.22457911    8.06148250   13.35389568
 H                  6.55448097    9.39131770   13.81563801
 H                  9.15795913    9.85690331   15.24771919
 H                  6.58186587    8.75729153   16.42459165
 H                  6.73910492   10.63446446   19.51861992

 1 2 1.0 37 1.0
 2 3 1.0 12 1.0 41 1.0
 3 4 1.0 6 1.0 42 1.0
 4 5 1.0
 5
 6 7 1.0 14 1.0 43 1.0
 7 8 1.0
 8
 9 10 1.0 12 1.0 38 1.0 39 1.0
 10 11 1.0
 11
 12 13 1.0 40 1.0
 13 14 1.0
 14 15 1.0 44 1.0
 15 16 1.0
 16 17 1.0 26 1.0 34 1.0
 17 18 1.0 20 1.0 33 1.0
 18 19 1.0
 19
 20 21 1.0 28 1.0 32 1.0
 21 22 1.0
 22
 23 24 1.0 26 1.0 36 1.0 45 1.0
 24 25 1.0
 25
 26 27 1.0 35 1.0
 27 28 1.0
 28 29 1.0 31 1.0
 29 30 1.0
 30
 31
 32
 33
 34
 35
 36
 37
 38
 39
 40
 41
 42
 43
 44
 45

