# freq=raman b3lyp/6-31+g(2d,p) geom=connectivity

473 10000/10000.com

0 1
O           7.56900         7.80400        12.12500
C           8.15600         8.06000        13.40900
C           7.62400         9.42200        13.82500
O           8.06500        10.43200        12.90700
H           7.67200        10.14100        12.03500
C           8.09100         9.77900        15.22700
O           7.50200        11.00500        15.68500
H           7.74200        11.16400        16.64200
C           8.02500         5.57400        14.15400
O           7.63200         4.87300        12.96500
H           7.84300         3.91600        13.16100
C           7.65500         7.02700        14.40500
O           8.06400         7.44400        15.71600
C           7.63000         8.71800        16.21300
O           8.45100         8.89600        17.37700
C           8.02800         8.37500        18.64600
C           8.68500         7.05900        19.03100
O           8.34100         6.03000        18.09200
H           8.54400         6.37300        17.17400
C           8.30600         6.66200        20.44800
O           8.99300         5.49500        20.92300
H           8.60200         5.23300        21.80500
C           7.80400        10.73700        19.49900
O           8.11700        11.50700        18.32900
H           8.03400        12.48700        18.50700
C           8.37500         9.35200        19.75700
O           7.87200         9.04500        21.06600
C           8.42700         7.78400        21.46700
O           7.59200         7.53300        22.60600

