# freq=raman b3lyp/6-31+g(d,p) geom=connectivity

300 10000.com

0 1
 O                  7.26300000    7.61900000   22.79400000
 C                  7.74400000    7.91700000   24.11200000
 C                  7.49700000    9.33900000   24.58600000
 O                  7.70200000   10.33400000   23.57200000
 H                  7.34300000    9.93100000   22.73000000
 C                  8.20300000    9.72400000   25.87600000
 O                  8.09400000   11.04100000   26.43400000
 H                  8.40400000   11.02200000   27.38500000
 C                  7.56800000    5.49600000   24.93900000
 O                  7.18500000    4.82100000   23.73200000
 H                  7.60400000    3.91300000   23.74500000
 C                  7.18000000    6.95200000   25.14200000
 O                  7.73800000    7.35200000   26.40200000
 C                  7.68400000    8.70500000   26.87800000
 O                  8.56600000    8.67600000   28.00900000
 C                  8.08800000    8.31900000   29.31400000
 C                  8.54000000    6.97300000   29.85900000
 O                  8.05300000    6.04700000   28.87700000
 H                  8.00400000    6.43000000   27.95400000
 C                  7.96000000    6.53200000   31.19300000
 O                  8.59700000    5.39400000   31.79200000
 H                  8.24600000    5.26800000   32.72000000
 C                  8.04100000   10.75100000   30.07100000
 O                  8.73100000   11.46000000   29.03100000
 H                  8.47200000   12.42600000   29.00200000
 C                  8.38500000    9.31300000   30.42500000
 O                  7.64400000    9.00500000   31.61400000
 C                  8.13800000    7.74500000   32.09200000
 O                  7.34100000    7.71800000   33.28500000
 H                  7.91592993    7.70060493   34.05360457
 H                  8.00837424    7.48557869   22.20390171
 H                  7.15831717    4.94106835   25.75699196
 H                  8.63404631    5.43839027   25.01059879
 H                  6.11419724    7.04079718   25.17485622
 H                  8.80423357    7.77373616   24.09525958
 H                  6.45240022    9.37932829   24.81422122
 H                  9.24575170    9.53137338   25.73294796
 H                  6.69006811    8.95398118   27.18623331
 H                  8.15787152   11.32552760   30.96607490
 H                  7.00155431   10.76618082   29.81757900
 H                  9.42905026    9.26134999   30.65345424
 H                  7.02232034    8.26785749   29.23269007
 H                  9.60869800    6.93499361   29.89560744
 H                  6.91590338    6.33016387   31.07457525
 H                  9.17026773    7.84417835   32.35560387

 1 2 1.0 31 1.0
 2 3 1.0 12 1.0 35 1.0
 3 4 1.0 6 1.0 36 1.0
 4 5 1.0
 5
 6 7 1.0 14 1.0 37 1.0
 7 8 1.0
 8
 9 10 1.0 12 1.0 32 1.0 33 1.0
 10 11 1.0
 11
 12 13 1.0 34 1.0
 13 14 1.0
 14 15 1.0 38 1.0
 15 16 1.0
 16 17 1.0 26 1.0 42 1.0
 17 18 1.0 20 1.0 43 1.0
 18 19 1.0
 19
 20 21 1.0 28 1.0 44 1.0
 21 22 1.0
 22
 23 24 1.0 26 1.0 39 1.0 40 1.0
 24 25 1.0
 25
 26 27 1.0 41 1.0
 27 28 1.0
 28 29 1.0 45 1.0
 29 30 1.0
 30
 31
 32
 33
 34
 35
 36
 37
 38
 39
 40
 41
 42
 43
 44
 45

