# freq=raman b3lyp/6-31+g(2df,p) geom=connectivity

300 5000.com

0 1
 O                  7.80300000    7.59500000   12.01500000
 C                  8.24700000    7.89900000   13.34600000
 C                  7.80100000    9.26200000   13.84800000
 O                  8.04300000   10.30600000   12.89400000
 H                  7.65700000    9.86500000   12.08400000
 C                  8.33300000    9.61100000   15.22900000
 O                  7.53100000   10.66800000   15.77700000
 H                  7.73900000   10.89400000   16.72900000
 C                  8.48400000    5.49300000   14.16000000
 O                  8.13100000    4.78300000   12.96400000
 H                  7.98000000    3.80300000   13.09600000
 C                  7.84800000    6.85600000   14.37700000
 O                  8.30200000    7.14900000   15.70700000
 C                  7.91400000    8.46300000   16.13400000
 O                  8.78400000    8.61400000   17.26500000
 C                  8.23700000    8.32800000   18.56000000
 C                  8.79000000    7.03800000   19.14400000
 O                  8.57200000    5.97400000   18.20700000
 H                  8.86300000    6.37200000   17.33700000
 C                  8.12200000    6.69700000   20.46600000
 O                  8.74300000    5.50100000   20.95700000
 H                  8.29300000    5.40800000   21.84500000
 C                  8.09100000   10.84500000   19.11200000
 O                  8.75100000   11.53600000   18.04100000
 H                  8.62900000   12.48200000   18.34000000
 C                  8.50200000    9.44900000   19.55200000
 O                  7.86300000    9.13500000   20.79800000
 C                  8.42400000    7.92000000   21.31700000
 O                  7.70300000    7.59000000   22.51300000
 H                  8.32477053    7.39545167   23.21809032
 H                  8.56475976    7.46491252   11.44543937
 H                  6.88254320    8.51504694   16.41379990
 H                  9.38375044    9.81163600   15.25284757
 H                  6.73779207    9.20091707   13.95171968
 H                  9.31651484    7.91371963   13.31734114
 H                  6.78299497    6.75282460   14.38137207
 H                  8.22636486    4.87538198   14.99490845
 H                  9.54596459    5.62388179   14.16108439
 H                  8.16665447   11.47318919   19.97487586
 H                  7.05499227   10.79131895   18.84988109
 H                  9.55682202    9.47114996   19.73021304
 H                  7.17765588    8.21904136   18.45599018
 H                  9.84185942    7.15107648   19.30432926
 H                  7.06775321    6.56376876   20.34064790
 H                  9.47231894    8.01741404   21.50788715

 1 2 1.0 31 1.0
 2 3 1.0 12 1.0 35 1.0
 3 4 1.0 6 1.0 34 1.0
 4 5 1.0
 5
 6 7 1.0 14 1.0 33 1.0
 7 8 1.0
 8
 9 10 1.0 12 1.0 37 1.0 38 1.0
 10 11 1.0
 11
 12 13 1.0 36 1.0
 13 14 1.0
 14 15 1.0 32 1.0
 15 16 1.0
 16 17 1.0 26 1.0 42 1.0
 17 18 1.0 20 1.0 43 1.0
 18 19 1.0
 19
 20 21 1.0 28 1.0 44 1.0
 21 22 1.0
 22
 23 24 1.0 26 1.0 39 1.0 40 1.0
 24 25 1.0
 25
 26 27 1.0 41 1.0
 27 28 1.0
 28 29 1.0 45 1.0
 29 30 1.0
 30
 31
 32
 33
 34
 35
 36
 37
 38
 39
 40
 41
 42
 43
 44
 45

