# freq=raman b3lyp/6-31+g(2d,p) geom=connectivity

500 9470/9470.com

0 1
 O                  8.55600000    7.12100000   11.92300000
 C                  9.35200000    7.21000000   13.11400000
 C                  9.41500000    8.62400000   13.66700000
 O                  9.83400000    9.74000000   12.86900000
 H                  9.34200000    9.37300000   12.07900000
 C                 10.40500000    8.59400000   14.82000000
 O                 10.93000000    9.84900000   15.27600000
 H                 11.59400000   10.31500000   14.69100000
 C                  9.05500000    4.78700000   13.77100000
 O                  8.35600000    3.91600000   14.67200000
 H                  8.83300000    3.04800000   14.53500000
 C                  8.87600000    6.23900000   14.18200000
 O                  9.64400000    6.35700000   15.38800000
 C                  9.80300000    7.69300000   15.88600000
 O                 10.43700000    7.41300000   17.14300000
 C                  9.66000000    7.31800000   18.34600000
 C                  9.53900000    5.89300000   18.86100000
 O                  8.79500000    5.11000000   17.91600000
 H                  9.22500000    5.22900000   17.02100000
 C                  8.81400000    5.79700000   20.19300000
 O                  9.05800000    4.54100000   20.84200000
 H                  8.39400000    3.83400000   20.59900000
 C                  9.99500000    9.75300000   19.16500000
 O                 10.52400000   10.77500000   20.02200000
 H                  9.78700000   11.43600000   19.88600000
 C                 10.25900000    8.27000000   19.36800000
 O                  9.59400000    8.13000000   20.63200000
 C                  9.52200000    6.77900000   21.11200000
 O                  8.85900000    6.82300000   22.38400000
 H                  9.51387897    6.84726677   23.08553023
 H                 10.52058192    6.42743511   21.26735851
 H                  7.76949908    6.01175217   20.10468618
 H                 10.51866431    5.47571644   18.96603463
 H                  8.67259539    7.66377953   18.12157038
 H                 11.30790632    8.08981018   19.47857648
 H                  8.93186267    9.87376183   19.17245660
 H                 10.32950722    9.98613044   18.17573001
 H                  9.13167713    7.06375110   11.15689400
 H                 10.09682639    4.54334508   13.78240435
 H                  8.67199802    4.65109869   12.78118167
 H                  7.84426512    6.42378182   14.39712514
 H                 10.34977834    6.92778067   12.85001014
 H                  8.45021543    8.85698028   14.06676360
 H                 11.25486491    8.06152305   14.44704165
 H                  8.82747533    8.07542237   16.10280578

 1 2 1.0 38 1.0
 2 3 1.0 12 1.0 42 1.0
 3 4 1.0 6 1.0 43 1.0
 4 5 1.0
 5
 6 7 1.0 14 1.0 44 1.0
 7 8 1.0
 8
 9 10 1.0 12 1.0 39 1.0 40 1.0
 10 11 1.0
 11
 12 13 1.0 41 1.0
 13 14 1.0
 14 15 1.0 45 1.0
 15 16 1.0
 16 17 1.0 26 1.0 34 1.0
 17 18 1.0 20 1.0 33 1.0
 18 19 1.0
 19
 20 21 1.0 28 1.0 32 1.0
 21 22 1.0
 22
 23 24 1.0 26 1.0 36 1.0 37 1.0
 24 25 1.0
 25
 26 27 1.0 35 1.0
 27 28 1.0
 28 29 1.0 31 1.0
 29 30 1.0
 30
 31
 32
 33
 34
 35
 36
 37
 38
 39
 40
 41
 42
 43
 44
 45

