# freq=raman b3lyp/6-31+g(2d,p) geom=connectivity

320 7742/7742.com

0 1
O           7.48300         7.77700        12.18500
C           8.10500         8.14300        13.42500
C           7.37500         9.40500        13.85600
O           7.48600        10.52500        12.96600
H           7.40500        10.09600        12.06600
C           7.91200         9.78600        15.22500
O           7.42900        10.95800        15.89700
H           7.94400        11.09100        16.74300
C           8.50500         5.72300        14.21500
O           8.28100         4.96700        13.01600
H           8.61300         4.03600        13.16500
C           7.86000         7.07500        14.47800
O           8.50100         7.53600        15.67600
C           7.79900         8.65600        16.23500
O           8.73500         8.86000        17.30400
C           8.33500         8.46200        18.62300
C           9.00000         7.18400        19.10700
O           8.82400         6.11000        18.17200
H           9.12100         6.47400        17.29000
C           8.64500         6.80700        20.53700
O           9.57300         5.89100        21.13500
H           9.10900         5.48000        21.91900
C           7.98400        10.81000        19.37400
O           8.60600        11.51800        18.29200
H           8.37100        12.49000        18.32100
C           8.54000         9.44900        19.76100
O           7.86600         9.11000        20.98200
C           8.65700         8.01300        21.46200
O           8.07900         7.67000        22.72900

