# freq=raman b3lyp/6-31+g(2d,p) geom=connectivity

280 7648/7648.com

0 1
O           7.57700         7.51000        12.15400
C           8.17100         7.82500        13.42200
C           7.60800         9.15100        13.90600
O           7.63400        10.18200        12.90800
H           7.47900         9.61700        12.09700
C           8.09700         9.57700        15.28100
O           7.57000        10.83900        15.71700
H           8.01500        11.15000        16.55600
C           8.19800         5.40400        14.12700
O           7.58300         4.84700        12.95700
H           7.74200         3.87300        13.11900
C           7.73000         6.81100        14.46400
O           8.19100         7.12800        15.78600
C           7.76300         8.42800        16.21700
O           8.54800         8.78800        17.36300
C           8.19000         8.37000        18.68800
C           8.92600         7.13500        19.18100
O           8.97200         6.11000        18.17800
H           9.09000         6.47000        17.25200
C           8.25400         6.73400        20.48400
O           8.74000         5.50200        21.03500
H           8.49900         5.42300        22.00300
C           7.80800        10.79300        19.46800
O           8.21000        11.55000        18.31700
H           8.41300        12.47600        18.63400
C           8.43100         9.43500        19.74600
O           7.92400         9.07500        21.03900
C           8.43900         7.82700        21.52400
O           7.64800         7.61600        22.70200

