# freq=raman b3lyp/6-31+g(2d,p) geom=connectivity

290 8686/8686.com

0 1
O           7.58000         7.75700        12.27200
C           8.23200         8.20600        13.46800
C           7.66600         9.51100        14.00500
O           7.98000        10.47300        12.98800
H           7.57000        10.09200        12.15900
C           8.20600         9.93800        15.36000
O           7.68000        11.14900        15.92200
H           8.18200        11.30100        16.77300
C           8.46100         5.77300        14.31200
O           7.96100         5.03400        13.18800
H           8.18400         4.07200        13.34500
C           7.89400         7.16700        14.52500
O           8.38400         7.55900        15.81500
C           7.90600         8.80900        16.33300
O           8.80000         8.94200        17.44800
C           8.41600         8.57000        18.78000
C           8.92500         7.24400        19.32100
O           8.81900         6.14700        18.40200
H           9.17700         6.41200        17.50600
C           8.37100         6.82500        20.67300
O           8.85500         5.56600        21.16200
H           8.39800         5.48600        22.04800
C           8.13300        10.94700        19.50500
O           8.64400        11.64100        18.35700
H           8.44000        12.61700        18.43800
C           8.77100         9.60700        19.83300
O           8.33800         9.20000        21.13900
C           8.83400         7.93600        21.60200
O           8.04500         7.80600        22.79300

