# freq=raman b3lyp/6-31+g(2d,p) geom=connectivity

290 8686/8686.com

0 1
 O                  7.58000000    7.75700000   12.27200000
 C                  8.23200000    8.20600000   13.46800000
 C                  7.66600000    9.51100000   14.00500000
 O                  7.98000000   10.47300000   12.98800000
 H                  7.57000000   10.09200000   12.15900000
 C                  8.20600000    9.93800000   15.36000000
 O                  7.68000000   11.14900000   15.92200000
 H                  8.18200000   11.30100000   16.77300000
 C                  8.46100000    5.77300000   14.31200000
 O                  7.96100000    5.03400000   13.18800000
 H                  8.18400000    4.07200000   13.34500000
 C                  7.89400000    7.16700000   14.52500000
 O                  8.38400000    7.55900000   15.81500000
 C                  7.90600000    8.80900000   16.33300000
 O                  8.80000000    8.94200000   17.44800000
 C                  8.41600000    8.57000000   18.78000000
 C                  8.92500000    7.24400000   19.32100000
 O                  8.81900000    6.14700000   18.40200000
 H                  9.17700000    6.41200000   17.50600000
 C                  8.37100000    6.82500000   20.67300000
 O                  8.85500000    5.56600000   21.16200000
 H                  8.39800000    5.48600000   22.04800000
 C                  8.13300000   10.94700000   19.50500000
 O                  8.64400000   11.64100000   18.35700000
 H                  8.44000000   12.61700000   18.43800000
 C                  8.77100000    9.60700000   19.83300000
 O                  8.33800000    9.20000000   21.13900000
 C                  8.83400000    7.93600000   21.60200000
 O                  8.04500000    7.80600000   22.79300000
 H                  8.62490247    7.72298551   23.55354041
 H                  8.24070335    7.51221393   11.61996406
 H                  8.25114909   11.58530450   20.35559282
 H                  7.08619533   10.78534626   19.35344788
 H                  9.83395074    9.72873183   19.84773386
 H                  7.34830218    8.50043731   18.77092301
 H                  9.97404833    7.38767266   19.47512904
 H                  7.30178040    6.80985909   20.63505012
 H                  9.88734852    7.93289296   21.79000862
 H                  8.26667002    5.20046452   15.19480178
 H                  9.52146874    5.86265899   14.20124210
 H                  6.82848031    7.08755656   14.58206603
 H                  9.29026338    8.27554528   13.32607725
 H                  6.60215678    9.42001170   14.07470454
 H                  9.26804602   10.04046330   15.27962880
 H                  6.87876387    8.76998399   16.62992371

 1 2 1.0 31 1.0
 2 3 1.0 12 1.0 42 1.0
 3 4 1.0 6 1.0 43 1.0
 4 5 1.0
 5
 6 7 1.0 14 1.0 44 1.0
 7 8 1.0
 8
 9 10 1.0 12 1.0 39 1.0 40 1.0
 10 11 1.0
 11
 12 13 1.0 41 1.0
 13 14 1.0
 14 15 1.0 45 1.0
 15 16 1.0
 16 17 1.0 26 1.0 35 1.0
 17 18 1.0 20 1.0 36 1.0
 18 19 1.0
 19
 20 21 1.0 28 1.0 37 1.0
 21 22 1.0
 22
 23 24 1.0 26 1.0 32 1.0 33 1.0
 24 25 1.0
 25
 26 27 1.0 34 1.0
 27 28 1.0
 28 29 1.0 38 1.0
 29 30 1.0
 30
 31
 32
 33
 34
 35
 36
 37
 38
 39
 40
 41
 42
 43
 44
 45

