# freq=raman b3lyp/6-31+g(2d,p) geom=connectivity

473 5386/5386.com

0 1
 O                  7.84500000    7.61700000   12.20100000
 C                  8.52200000    8.02700000   13.39800000
 C                  7.77300000    9.26400000   13.86800000
 O                  7.98300000   10.28500000   12.88200000
 H                  7.89700000    9.82500000   11.99900000
 C                  8.20800000    9.74800000   15.24200000
 O                  7.35900000   10.83000000   15.65100000
 H                  7.60300000   11.17900000   16.55500000
 C                  8.67100000    5.58800000   14.17400000
 O                  8.05700000    4.85600000   13.10400000
 H                  8.12000000    3.89000000   13.35200000
 C                  8.20800000    7.00300000   14.47700000
 O                  8.75100000    7.38500000   15.74900000
 C                  8.10300000    8.58000000   16.20800000
 O                  8.67500000    8.82600000   17.50100000
 C                  8.05800000    8.48300000   18.75100000
 C                  8.66700000    7.18100000   19.24700000
 O                  8.53300000    6.05000000   18.37400000
 H                  8.52200000    6.36000000   17.42300000
 C                  8.17400000    6.70300000   20.60300000
 O                  8.60800000    5.51000000   21.27200000
 H                  8.25500000    5.46800000   22.20600000
 C                  7.86900000   10.89700000   19.61000000
 O                  8.17600000   11.57100000   18.38100000
 H                  8.03800000   12.56000000   18.44500000
 C                  8.30000000    9.46600000   19.88500000
 O                  7.78600000    9.06100000   21.16300000
 C                  8.42100000    7.84300000   21.57700000
 O                  7.70200000    7.53900000   22.78100000
 H                  8.32493141    7.36017959   23.48922293
 H                  9.46422994    7.98533034   21.76756068
 H                  7.11239619    6.60977373   20.50705102
 H                  9.71631727    7.36277558   19.35087933
 H                  7.00555063    8.35403722   18.60740711
 H                  9.36283669    9.50442972   20.00247905
 H                  8.27688030   11.49586793   20.39733148
 H                  6.80436780   10.92110336   19.71429433
 H                  8.49207250    7.38720523   11.53011138
 H                  8.54234558    5.01322056   15.06729538
 H                  9.71975385    5.63411027   13.96690290
 H                  7.14358123    6.97220698   14.58171141
 H                  9.57003886    8.19338916   13.26078050
 H                  6.72833025    9.03538779   13.90407724
 H                  9.22228775   10.08589331   15.19785842
 H                  7.06452213    8.36064895   16.34345787

 1 2 1.0 38 1.0
 2 3 1.0 12 1.0 42 1.0
 3 4 1.0 6 1.0 43 1.0
 4 5 1.0
 5
 6 7 1.0 14 1.0 44 1.0
 7 8 1.0
 8
 9 10 1.0 12 1.0 39 1.0 40 1.0
 10 11 1.0
 11
 12 13 1.0 41 1.0
 13 14 1.0
 14 15 1.0 45 1.0
 15 16 1.0
 16 17 1.0 26 1.0 34 1.0
 17 18 1.0 20 1.0 33 1.0
 18 19 1.0
 19
 20 21 1.0 28 1.0 32 1.0
 21 22 1.0
 22
 23 24 1.0 26 1.0 36 1.0 37 1.0
 24 25 1.0
 25
 26 27 1.0 35 1.0
 27 28 1.0
 28 29 1.0 31 1.0
 29 30 1.0
 30
 31
 32
 33
 34
 35
 36
 37
 38
 39
 40
 41
 42
 43
 44
 45

