# freq=raman b3lyp/6-31+g(2d,p) geom=connectivity

473 5386/5386.com

0 1
O           7.84500         7.61700        12.20100
C           8.52200         8.02700        13.39800
C           7.77300         9.26400        13.86800
O           7.98300        10.28500        12.88200
H           7.89700         9.82500        11.99900
C           8.20800         9.74800        15.24200
O           7.35900        10.83000        15.65100
H           7.60300        11.17900        16.55500
C           8.67100         5.58800        14.17400
O           8.05700         4.85600        13.10400
H           8.12000         3.89000        13.35200
C           8.20800         7.00300        14.47700
O           8.75100         7.38500        15.74900
C           8.10300         8.58000        16.20800
O           8.67500         8.82600        17.50100
C           8.05800         8.48300        18.75100
C           8.66700         7.18100        19.24700
O           8.53300         6.05000        18.37400
H           8.52200         6.36000        17.42300
C           8.17400         6.70300        20.60300
O           8.60800         5.51000        21.27200
H           8.25500         5.46800        22.20600
C           7.86900        10.89700        19.61000
O           8.17600        11.57100        18.38100
H           8.03800        12.56000        18.44500
C           8.30000         9.46600        19.88500
O           7.78600         9.06100        21.16300
C           8.42100         7.84300        21.57700
O           7.70200         7.53900        22.78100

