# freq=raman b3lyp/6-31+g(2df,p) geom=connectivity

400 6000.com

0 1
 O                  8.65100000    7.24900000   12.17600000
 C                  9.28500000    7.57100000   13.42200000
 C                  8.95500000    8.94900000   13.97300000
 O                  9.34300000    9.83700000   12.91500000
 H                  9.05800000    9.43300000   12.04500000
 C                  9.67200000    9.24700000   15.27900000
 O                  9.52300000   10.49400000   15.97400000
 H                  9.93200000   10.52700000   16.88600000
 C                  9.32700000    5.12400000   14.13900000
 O                  8.91400000    4.58300000   12.87600000
 H                  9.01100000    3.58800000   12.89700000
 C                  8.91300000    6.54600000   14.48100000
 O                  9.51700000    6.85200000   15.74700000
 C                  9.26600000    8.16600000   16.26700000
 O                  9.93000000    8.31700000   17.53000000
 C                  9.11400000    8.05900000   18.68200000
 C                  9.49000000    6.65200000   19.11700000
 O                  9.43100000    5.66100000   18.08100000
 H                  9.63100000    6.05000000   17.18200000
 C                  8.99900000    6.32400000   20.51800000
 O                  9.46400000    5.00900000   20.85800000
 H                  9.29700000    4.87600000   21.83500000
 C                  9.52200000   10.36800000   19.50300000
 O                 10.30300000   10.99500000   18.47600000
 H                 10.28400000   11.98300000   18.62800000
 C                  9.81500000    8.89600000   19.73900000
 O                  9.19100000    8.59200000   20.99500000
 C                  9.61000000    7.31400000   21.49600000
 O                  8.85600000    7.28100000   22.71700000
 H                  9.45808396    7.26079855   23.46445355
 H                 10.66807437    7.22107929   21.62540002
 H                  7.93066560    6.36619647   20.56020279
 H                 10.54535316    6.73797514   19.27107138
 H                  8.06726970    8.24709421   18.56420248
 H                 10.86688902    8.70166097   19.76472626
 H                  9.69065524   10.89378722   20.41951689
 H                  8.48842971   10.46603809   19.24411587
 H                  9.32150159    7.07709711   11.51081054
 H                  8.94583229    4.48263750   14.90598457
 H                 10.39546611    5.08025633   14.17596830
 H                  7.85020760    6.56448272   14.60359977
 H                 10.34344422    7.52204481   13.27300596
 H                  7.89867456    9.02364992   14.12630997
 H                 10.71787609    9.12496438   15.08886709
 H                  8.21342304    8.25625018   16.43681356

 1 2 1.0 38 1.0
 2 3 1.0 12 1.0 42 1.0
 3 4 1.0 6 1.0 43 1.0
 4 5 1.0
 5
 6 7 1.0 14 1.0 44 1.0
 7 8 1.0
 8
 9 10 1.0 12 1.0 39 1.0 40 1.0
 10 11 1.0
 11
 12 13 1.0 41 1.0
 13 14 1.0
 14 15 1.0 45 1.0
 15 16 1.0
 16 17 1.0 26 1.0 34 1.0
 17 18 1.0 20 1.0 33 1.0
 18 19 1.0
 19
 20 21 1.0 28 1.0 32 1.0
 21 22 1.0
 22
 23 24 1.0 26 1.0 36 1.0 37 1.0
 24 25 1.0
 25
 26 27 1.0 35 1.0
 27 28 1.0
 28 29 1.0 31 1.0
 29 30 1.0
 30
 31
 32
 33
 34
 35
 36
 37
 38
 39
 40
 41
 42
 43
 44
 45

