# freq=raman b3lyp/6-31+g(2d,p) geom=connectivity

320 6887/6887.com

0 1
 O                  7.42800000    7.73600000   12.09800000
 C                  8.13800000    7.99000000   13.31900000
 C                  7.65500000    9.31100000   13.89500000
 O                  7.86200000   10.34100000   12.91800000
 H                  7.65400000   10.02600000   11.99200000
 C                  8.28500000    9.62900000   15.24100000
 O                  7.84400000   10.88000000   15.79000000
 H                  8.33900000   11.10900000   16.62800000
 C                  8.49700000    5.59400000   14.12300000
 O                  8.09300000    4.94400000   12.90800000
 H                  8.41600000    4.00100000   12.82600000
 C                  7.95700000    6.97900000   14.43900000
 O                  8.63800000    7.31400000   15.65700000
 C                  8.06800000    8.49900000   16.23400000
 O                  8.84400000    8.65700000   17.43100000
 C                  8.32100000    8.30300000   18.71900000
 C                  9.05800000    7.11800000   19.32300000
 O                  8.86500000    5.96500000   18.49100000
 H                  8.63900000    6.26700000   17.56500000
 C                  8.61300000    6.66500000   20.70400000
 O                  9.30300000    5.54000000   21.26700000
 H                  8.96000000    5.37600000   22.19200000
 C                  7.93900000   10.76300000   19.49300000
 O                  8.59900000   11.42300000   18.40300000
 H                  8.61800000   12.40700000   18.58100000
 C                  8.54400000    9.39300000   19.75400000
 O                  7.82300000    8.98500000   20.92600000
 C                  8.64800000    7.96000000   21.49900000
 O                  7.94400000    7.68500000   22.71800000
 H                  8.57550184    7.52588183   23.42332747
 H                  8.03418250   11.36184790   20.37460166
 H                  6.90160454   10.64879120   19.25706141
 H                  9.58648046    9.48505422   19.97684640
 H                  7.27696372    8.08194057   18.64140512
 H                 10.10274943    7.34650267   19.35742627
 H                  7.58516270    6.37943618   20.62091091
 H                  9.64637050    8.29884026   21.68160238
 H                  8.05624464    7.58816191   11.38732949
 H                  8.22426723    4.95211573   14.93448100
 H                  9.56465914    5.66320866   14.10836682
 H                  6.91118588    6.89432915   14.64877054
 H                  9.18150320    8.07235782   13.09714813
 H                  6.59980378    9.22533704   14.05031514
 H                  9.34001057    9.71034668   15.08214341
 H                  7.02995117    8.36324192   16.45518852

 1 2 1.0 38 1.0
 2 3 1.0 12 1.0 42 1.0
 3 4 1.0 6 1.0 43 1.0
 4 5 1.0
 5
 6 7 1.0 14 1.0 44 1.0
 7 8 1.0
 8
 9 10 1.0 12 1.0 39 1.0 40 1.0
 10 11 1.0
 11
 12 13 1.0 41 1.0
 13 14 1.0
 14 15 1.0 45 1.0
 15 16 1.0
 16 17 1.0 26 1.0 34 1.0
 17 18 1.0 20 1.0 35 1.0
 18 19 1.0
 19
 20 21 1.0 28 1.0 36 1.0
 21 22 1.0
 22
 23 24 1.0 26 1.0 31 1.0 32 1.0
 24 25 1.0
 25
 26 27 1.0 33 1.0
 27 28 1.0
 28 29 1.0 37 1.0
 29 30 1.0
 30
 31
 32
 33
 34
 35
 36
 37
 38
 39
 40
 41
 42
 43
 44
 45

