# freq=raman b3lyp/6-31+g(2d,p) geom=connectivity

320 6887/6887.com

0 1
O           7.42800         7.73600        12.09800
C           8.13800         7.99000        13.31900
C           7.65500         9.31100        13.89500
O           7.86200        10.34100        12.91800
H           7.65400        10.02600        11.99200
C           8.28500         9.62900        15.24100
O           7.84400        10.88000        15.79000
H           8.33900        11.10900        16.62800
C           8.49700         5.59400        14.12300
O           8.09300         4.94400        12.90800
H           8.41600         4.00100        12.82600
C           7.95700         6.97900        14.43900
O           8.63800         7.31400        15.65700
C           8.06800         8.49900        16.23400
O           8.84400         8.65700        17.43100
C           8.32100         8.30300        18.71900
C           9.05800         7.11800        19.32300
O           8.86500         5.96500        18.49100
H           8.63900         6.26700        17.56500
C           8.61300         6.66500        20.70400
O           9.30300         5.54000        21.26700
H           8.96000         5.37600        22.19200
C           7.93900        10.76300        19.49300
O           8.59900        11.42300        18.40300
H           8.61800        12.40700        18.58100
C           8.54400         9.39300        19.75400
O           7.82300         8.98500        20.92600
C           8.64800         7.96000        21.49900
O           7.94400         7.68500        22.71800

