# freq=raman b3lyp/6-31+g(2d,p) geom=connectivity

350 8082/8082.com

0 1
 O                  7.46300000    7.48300000   12.16500000
 C                  8.05300000    7.87300000   13.41400000
 C                  7.64100000    9.25800000   13.88600000
 O                  7.83600000   10.25700000   12.87500000
 H                  7.70700000    9.79100000   11.99900000
 C                  8.04700000    9.58200000   15.31400000
 O                  7.35800000   10.71200000   15.87100000
 H                  7.96600000   10.92900000   16.63400000
 C                  8.24000000    5.38400000   14.14000000
 O                  7.93200000    4.79000000   12.87000000
 H                  8.26200000    3.84800000   12.93400000
 C                  7.78100000    6.79800000   14.45400000
 O                  8.34300000    7.13600000   15.73100000
 C                  7.86900000    8.39000000   16.24100000
 O                  8.75700000    8.56000000   17.35500000
 C                  8.28100000    8.11300000   18.63300000
 C                  8.84500000    6.80400000   19.15900000
 O                  8.84800000    5.79400000   18.13900000
 H                  9.14800000    6.26400000   17.30900000
 C                  8.29200000    6.48000000   20.53800000
 O                  8.97900000    5.38600000   21.16200000
 H                  8.73100000    5.14900000   22.10200000
 C                  8.50100000   10.66200000   19.37800000
 O                  8.77700000   11.57500000   18.30600000
 H                  8.51200000   12.46900000   18.67000000
 C                  8.72300000    9.17800000   19.62300000
 O                  8.26900000    8.90400000   20.95700000
 C                  8.49800000    7.61000000   21.53300000
 O                  7.68900000    7.53800000   22.71600000
 H                  8.25613914    7.49094524   23.48913585
 H                  8.15655995    7.28516203   11.53141123
 H                  7.83113922    4.74488787   14.89449887
 H                  9.30459324    5.36717311   14.24610417
 H                  6.71937803    6.75683879   14.58113991
 H                  9.11193053    7.89994150   13.26286997
 H                  6.57533811    9.18801868   13.95208592
 H                  9.08978646    9.82135591   15.29967713
 H                  6.85500598    8.30909255   16.57291884
 H                  7.44673030   10.77377357   19.52264466
 H                  8.98929162   11.11858462   20.21346501
 H                  9.78685488    9.07124907   19.66443717
 H                  7.21237068    8.06101541   18.61786811
 H                  9.88152685    7.00505064   19.33246681
 H                  7.24900984    6.25321818   20.46288980
 H                  9.52119896    7.57476082   21.84400174

 1 2 1.0 31 1.0
 2 3 1.0 12 1.0 35 1.0
 3 4 1.0 6 1.0 36 1.0
 4 5 1.0
 5
 6 7 1.0 14 1.0 37 1.0
 7 8 1.0
 8
 9 10 1.0 12 1.0 32 1.0 33 1.0
 10 11 1.0
 11
 12 13 1.0 34 1.0
 13 14 1.0
 14 15 1.0 38 1.0
 15 16 1.0
 16 17 1.0 26 1.0 42 1.0
 17 18 1.0 20 1.0 43 1.0
 18 19 1.0
 19
 20 21 1.0 28 1.0 44 1.0
 21 22 1.0
 22
 23 24 1.0 26 1.0 39 1.0 40 1.0
 24 25 1.0
 25
 26 27 1.0 41 1.0
 27 28 1.0
 28 29 1.0 45 1.0
 29 30 1.0
 30
 31
 32
 33
 34
 35
 36
 37
 38
 39
 40
 41
 42
 43
 44
 45

