# freq=raman b3lyp/6-31+g(2d,p) geom=connectivity

350 8082/8082.com

0 1
O           7.46300         7.48300        12.16500
C           8.05300         7.87300        13.41400
C           7.64100         9.25800        13.88600
O           7.83600        10.25700        12.87500
H           7.70700         9.79100        11.99900
C           8.04700         9.58200        15.31400
O           7.35800        10.71200        15.87100
H           7.96600        10.92900        16.63400
C           8.24000         5.38400        14.14000
O           7.93200         4.79000        12.87000
H           8.26200         3.84800        12.93400
C           7.78100         6.79800        14.45400
O           8.34300         7.13600        15.73100
C           7.86900         8.39000        16.24100
O           8.75700         8.56000        17.35500
C           8.28100         8.11300        18.63300
C           8.84500         6.80400        19.15900
O           8.84800         5.79400        18.13900
H           9.14800         6.26400        17.30900
C           8.29200         6.48000        20.53800
O           8.97900         5.38600        21.16200
H           8.73100         5.14900        22.10200
C           8.50100        10.66200        19.37800
O           8.77700        11.57500        18.30600
H           8.51200        12.46900        18.67000
C           8.72300         9.17800        19.62300
O           8.26900         8.90400        20.95700
C           8.49800         7.61000        21.53300
O           7.68900         7.53800        22.71600

