# freq=raman b3lyp/6-31+g(2d,p) geom=connectivity

280 9887/9887.com

0 1
O           7.75300         7.83800        12.00700
C           8.22600         8.04800        13.34600
C           7.76300         9.41600        13.81800
O           8.18300        10.51500        12.99600
H           8.15900        10.10900        12.08200
C           7.96700         9.76100        15.28400
O           7.25500        10.89400        15.80200
H           7.58300        11.14200        16.71300
C           8.21800         5.60600        14.02900
O           7.50000         4.90600        13.00300
H           7.53900         3.94600        13.28300
C           7.75800         7.01600        14.36000
O           8.31400         7.36400        15.63600
C           7.72500         8.55500        16.17700
O           8.57600         8.58900        17.33100
C           7.94300         8.42300        18.60800
C           8.42900         7.07300        19.11000
O           8.21900         6.06100        18.11400
H           8.27500         6.46500        17.20100
C           7.90500         6.76100        20.50200
O           8.74600         5.65600        20.86400
H           8.67800         5.57300        21.85800
C           7.56900        10.75600        19.42600
O           7.78800        11.60200        18.28800
H           7.58000        12.53800        18.57400
C           8.34600         9.46700        19.63700
O           7.83100         9.15600        20.94000
C           8.21700         7.88400        21.47800
O           7.42400         7.81500        22.67300

