# freq=raman b3lyp/6-31+g(2d,p) geom=connectivity

550 5794/5794.com

0 1
O           9.11900         7.51200        11.43800
C          10.03300         7.32300        12.52800
C          10.13800         8.74300        13.06200
O          10.61500         9.73800        12.14600
H          10.20700         9.60000        11.24300
C          10.82900         8.89700        14.40700
O          10.73400        10.27700        14.78800
H          11.23300        10.80700        14.10100
C           9.41200         4.93500        13.21100
O           8.79400         4.05600        14.16100
H           8.49800         3.24300        13.65900
C           9.48100         6.40200        13.60400
O          10.21000         6.58000        14.82700
C          10.12400         7.92000        15.33400
O          10.85600         7.72000        16.55200
C          10.02800         7.95800        17.70000
C           9.21900         6.74200        18.12300
O           8.00000         6.69400        17.36800
H           8.15700         6.83600        16.39100
C           8.65200         6.50600        19.51300
O           8.14000         5.17900        19.70000
H           7.47200         5.34100        18.97400
C          10.90400         9.88500        18.67400
O          12.01500        10.50600        19.33700
H          12.95400        10.18300        19.21400
C          10.87000         8.38100        18.89200
O          10.36100         8.11400        20.20700
C           9.88400         6.76900        20.36400
O           9.44600         6.80500        21.73000

