# freq=raman b3lyp/6-31+g(d,p) geom=connectivity

350 5000.com

0 1
O           8.00500         7.80200        12.22500
C           8.58500         8.18300        13.48100
C           8.04100         9.51400        13.97400
O           8.29900        10.61300        13.08800
H           8.31600        10.24200        12.16000
C           8.53700         9.81700        15.37800
O           7.90000        11.03100        15.79900
H           8.16400        11.14600        16.75700
C           8.62700         5.72600        14.26000
O           8.53700         4.99100        13.03100
H           8.60700         4.00300        13.16600
C           8.16000         7.15000        14.51300
O           8.76000         7.43400        15.78500
C           8.20000         8.65300        16.29500
O           9.03800         8.69000        17.46000
C           8.32400         8.50800        18.69100
C           8.58500         7.14100        19.30300
O           8.14600         6.05300        18.47700
H           8.07200         6.39400        17.54000
C           8.20000         6.71400        20.71100
O           8.88800         5.54600        21.18200
H           8.54800         5.21200        22.06100
C           7.92500        10.84300        19.32800
O           8.61800        11.63800        18.35500
H           8.43700        12.61800        18.43900
C           8.63900         9.56400        19.73700
O           8.03200         9.24900        20.99900
C           8.48400         7.98200        21.49900
O           7.64800         7.83700        22.65600

