# freq=raman b3lyp/6-31+g(d,p) geom=connectivity

350 8000.com

0 1
O           7.88500         7.61300        12.24700
C           8.47600         8.00300        13.49500
C           7.95000         9.34400        13.97800
O           7.89600        10.33800        12.94500
H           7.77600         9.87100        12.07000
C           8.39600         9.81700        15.35200
O           7.55900        10.82900        15.93100
H           7.85200        11.11400        16.84400
C           8.58500         5.50300        14.30500
O           8.05700         4.80000        13.17100
H           8.32700         3.84300        13.27500
C           8.10800         6.93200        14.50900
O           8.59500         7.41000        15.77100
C           8.15500         8.66400        16.31300
O           8.98700         8.82100        17.47200
C           8.34600         8.47600        18.70900
C           9.02700         7.24600        19.28700
O           8.60800         6.12800        18.49100
H           8.60100         6.36600        17.51900
C           8.52500         6.83800        20.66200
O           9.28300         5.72000        21.14800
H           8.96400         5.32900        22.01100
C           8.04500        10.93400        19.34000
O           8.57100        11.63200        18.20200
H           8.46700        12.61000        18.38500
C           8.56800         9.56500        19.74500
O           8.09500         9.25000        21.06200
C           8.61500         8.02700        21.60500
O           7.81800         7.79600        22.77500

