# freq=raman b3lyp/6-31+g(d,p) geom=connectivity

350 9000.com

0 1
 O                  7.25500000    7.79400000   12.20800000
 C                  7.75800000    8.13400000   13.50800000
 C                  7.15100000    9.40900000   14.07000000
 O                  7.59500000   10.40600000   13.13800000
 H                  7.69100000    9.91400000   12.27300000
 C                  7.73500000    9.68900000   15.44500000
 O                  7.16500000   10.83600000   16.09200000
 H                  7.74000000   10.98100000   16.89700000
 C                  8.28900000    5.70000000   13.93700000
 O                  7.76400000    5.01800000   12.79000000
 H                  7.89400000    4.03100000   12.87900000
 C                  7.57300000    6.94500000   14.43600000
 O                  8.16400000    7.27200000   15.70200000
 C                  7.80000000    8.48800000   16.37300000
 O                  8.67800000    8.66600000   17.49400000
 C                  8.10300000    8.24700000   18.74100000
 C                  8.79000000    6.95900000   19.16400000
 O                  8.82000000    5.94300000   18.15100000
 H                  8.76900000    6.33700000   17.23400000
 C                  8.31700000    6.54000000   20.54600000
 O                  9.07700000    5.42400000   21.03500000
 H                  9.06100000    5.46300000   22.03400000
 C                  8.16800000   10.76000000   19.58700000
 O                  8.40600000   11.37500000   18.31300000
 H                  8.27500000   12.36600000   18.34700000
 C                  8.49500000    9.28700000   19.77700000
 O                  7.93800000    8.85900000   21.02900000
 C                  8.55200000    7.66700000   21.53900000
 O                  7.72300000    7.37900000   22.67400000
 H                  8.27681022    7.18613776   23.43406473
 H                  9.58229561    7.80004011   21.79530313
 H                  7.27713969    6.28953346   20.51672465
 H                  9.81626425    7.22937619   19.30030264
 H                  7.04147205    8.13072722   18.67362745
 H                  9.55878856    9.22674475   19.87509790
 H                  8.72912208   11.30760694   20.31512681
 H                  7.13018971   10.88799340   19.81386447
 H                  7.99047035    7.63788304   11.61108221
 H                  6.81512607    8.34598418   16.76638893
 H                  8.75577034    9.95227869   15.26166360
 H                  6.08297263    9.35182724   14.10080276
 H                  8.81029283    8.30063247   13.40893734
 H                  6.53051703    6.73995745   14.56283379
 H                  8.31502897    4.99842476   14.74447426
 H                  9.29783094    5.97718781   13.71266307

 1 2 1.0 38 1.0
 2 3 1.0 12 1.0 42 1.0
 3 4 1.0 6 1.0 41 1.0
 4 5 1.0
 5
 6 7 1.0 14 1.0 40 1.0
 7 8 1.0
 8
 9 10 1.0 12 1.0 44 1.0 45 1.0
 10 11 1.0
 11
 12 13 1.0 43 1.0
 13 14 1.0
 14 15 1.0 39 1.0
 15 16 1.0
 16 17 1.0 26 1.0 34 1.0
 17 18 1.0 20 1.0 33 1.0
 18 19 1.0
 19
 20 21 1.0 28 1.0 32 1.0
 21 22 1.0
 22
 23 24 1.0 26 1.0 36 1.0 37 1.0
 24 25 1.0
 25
 26 27 1.0 35 1.0
 27 28 1.0
 28 29 1.0 31 1.0
 29 30 1.0
 30
 31
 32
 33
 34
 35
 36
 37
 38
 39
 40
 41
 42
 43
 44
 45

