# freq=raman b3lyp/6-31+g(2d,p) geom=connectivity

473 6000/6000.com

0 1
 O                  7.63100000    7.41500000   12.18100000
 C                  8.07400000    7.74100000   13.50600000
 C                  7.58300000    9.06600000   14.06500000
 O                  7.89000000   10.15300000   13.17900000
 H                  7.72600000    9.72600000   12.29000000
 C                  8.26800000    9.39100000   15.38200000
 O                  7.73200000   10.55300000   16.03300000
 H                  8.10300000   10.65400000   16.95600000
 C                  8.33600000    5.35500000   14.21900000
 O                  7.82900000    4.65300000   13.07500000
 H                  7.94200000    3.68800000   13.30900000
 C                  7.79500000    6.72300000   14.60000000
 O                  8.48800000    7.02700000   15.81900000
 C                  8.06300000    8.27300000   16.39100000
 O                  8.91400000    8.52500000   17.51900000
 C                  8.23800000    8.28800000   18.76300000
 C                  8.73700000    6.94900000   19.28100000
 O                  8.65000000    5.89000000   18.31600000
 H                  9.02200000    6.31100000   17.48800000
 C                  8.10100000    6.58400000   20.61300000
 O                  8.45000000    5.35300000   21.26300000
 H                  8.08000000    5.25800000   22.18800000
 C                  8.19300000   10.69200000   19.54300000
 O                  8.64100000   11.41000000   18.38400000
 H                  8.32900000   12.35900000   18.42900000
 C                  8.66900000    9.27800000   19.83300000
 O                  7.93000000    8.98600000   21.02800000
 C                  8.31700000    7.72500000   21.59300000
 O                  7.43600000    7.49600000   22.70200000
 H                  7.95386918    7.33253291   23.49363756
 H                  8.39305116    7.27551137   11.61406001
 H                  8.19366539    4.71622127   15.06552383
 H                  9.39056742    5.46531334   14.07540848
 H                  6.74262816    6.66154124   14.78340211
 H                  9.13900263    7.82226956   13.44224532
 H                  6.52484982    9.01818528   14.21643297
 H                  9.31542990    9.52967091   15.21300007
 H                  7.03838894    8.22003763   16.69475511
 H                  8.45013752   11.28653035   20.39465366
 H                  7.12488925   10.65512344   19.49123572
 H                  9.72440827    9.24373874   20.00574127
 H                  7.17535317    8.28504519   18.63780824
 H                  9.78027469    7.08062878   19.47886811
 H                  7.04744103    6.53426665   20.43288868
 H                  9.33516936    7.75428688   21.92067886

 1 2 1.0 31 1.0
 2 3 1.0 12 1.0 35 1.0
 3 4 1.0 6 1.0 36 1.0
 4 5 1.0
 5
 6 7 1.0 14 1.0 37 1.0
 7 8 1.0
 8
 9 10 1.0 12 1.0 32 1.0 33 1.0
 10 11 1.0
 11
 12 13 1.0 34 1.0
 13 14 1.0
 14 15 1.0 38 1.0
 15 16 1.0
 16 17 1.0 26 1.0 42 1.0
 17 18 1.0 20 1.0 43 1.0
 18 19 1.0
 19
 20 21 1.0 28 1.0 44 1.0
 21 22 1.0
 22
 23 24 1.0 26 1.0 39 1.0 40 1.0
 24 25 1.0
 25
 26 27 1.0 41 1.0
 27 28 1.0
 28 29 1.0 45 1.0
 29 30 1.0
 30
 31
 32
 33
 34
 35
 36
 37
 38
 39
 40
 41
 42
 43
 44
 45

