# freq=raman b3lyp/6-31+g(2d,p) geom=connectivity

473 6000/6000.com

0 1
O           7.63100         7.41500        12.18100
C           8.07400         7.74100        13.50600
C           7.58300         9.06600        14.06500
O           7.89000        10.15300        13.17900
H           7.72600         9.72600        12.29000
C           8.26800         9.39100        15.38200
O           7.73200        10.55300        16.03300
H           8.10300        10.65400        16.95600
C           8.33600         5.35500        14.21900
O           7.82900         4.65300        13.07500
H           7.94200         3.68800        13.30900
C           7.79500         6.72300        14.60000
O           8.48800         7.02700        15.81900
C           8.06300         8.27300        16.39100
O           8.91400         8.52500        17.51900
C           8.23800         8.28800        18.76300
C           8.73700         6.94900        19.28100
O           8.65000         5.89000        18.31600
H           9.02200         6.31100        17.48800
C           8.10100         6.58400        20.61300
O           8.45000         5.35300        21.26300
H           8.08000         5.25800        22.18800
C           8.19300        10.69200        19.54300
O           8.64100        11.41000        18.38400
H           8.32900        12.35900        18.42900
C           8.66900         9.27800        19.83300
O           7.93000         8.98600        21.02800
C           8.31700         7.72500        21.59300
O           7.43600         7.49600        22.70200

