# freq=raman b3lyp/6-31+g(2d,p) geom=connectivity

483 9000.com

0 1
C           8.49800         7.86100        24.02500
C           7.98100         9.16400        24.61100
O           8.08500        10.24800        23.67600
H           7.90100         9.94700        22.74000
C           8.58800         9.49200        25.96600
O           8.04000        10.66900        26.57800
H           8.31500        10.76100        27.53500
C           8.59200         5.44700        24.63000
O           8.05300         4.76600        23.48800
H           8.16200         3.78500        23.64400
C           8.09500         6.81900        25.05600
O           8.79900         7.07700        26.27900
C           8.42700         8.31100        26.91000
O           9.10400         8.59600        28.14300
C           8.40000         8.33700        29.36700
C           8.91100         6.99100        29.85500
O           8.45600         5.97500        28.94900
H           8.82000         6.33700        28.09100
C           8.42000         6.61200        31.24200
O           8.99700         5.37200        31.67700
H           8.51400         5.12200        32.51700
C           8.20100        10.74300        30.23100
O           8.50700        11.38100        28.98400
H           8.27700        12.32800        29.20800
C           8.67900         9.32300        30.49000
O           8.12500         8.90100        31.74400
C           8.71400         7.70000        32.26300
O           7.90100         7.57000        33.43800
C           8.43900         7.99600        34.69800

