# freq=raman b3lyp/6-31+g(2d,p) geom=connectivity

423 7523/7523.com

0 1
 O                  7.39800000    7.64600000   12.33900000
 C                  8.04400000    8.06400000   13.55000000
 C                  7.50400000    9.38000000   14.08500000
 O                  7.59200000   10.36900000   13.04800000
 H                  7.46000000    9.81900000   12.22300000
 C                  8.14700000    9.74900000   15.41200000
 O                  7.86400000   10.99700000   16.06100000
 H                  8.32500000   11.09600000   16.94300000
 C                  8.20900000    5.52600000   14.31100000
 O                  7.45500000    4.94100000   13.23900000
 H                  7.50700000    3.94500000   13.31600000
 C                  7.87700000    6.98000000   14.60300000
 O                  8.39200000    7.37400000   15.88300000
 C                  7.96500000    8.63200000   16.42600000
 O                  8.77300000    8.60700000   17.61200000
 C                  8.22300000    8.33200000   18.90800000
 C                  8.74500000    7.00100000   19.42400000
 O                  8.62800000    6.07300000   18.33700000
 H                  8.79700000    6.55300000   17.47600000
 C                  8.14800000    6.61900000   20.76900000
 O                  8.89500000    5.52400000   21.31900000
 H                  8.42000000    5.28200000   22.16400000
 C                  7.87500000   10.72700000   19.61600000
 O                  8.40100000   11.51300000   18.53700000
 H                  8.24500000   12.47800000   18.74800000
 C                  8.43100000    9.36600000   20.00300000
 O                  7.77600000    8.93200000   21.20400000
 C                  8.25500000    7.72200000   21.80900000
 O                  7.35700000    7.51300000   22.90900000
 H                  7.86285795    7.36070187   23.71056910
 H                  8.06208559    7.41980808   11.68369279
 H                  8.03220414    4.95495760   15.19844228
 H                  9.24875856    5.45992128   14.06720553
 H                  6.81798620    6.95755800   14.75428161
 H                  9.08846178    8.18404688   13.35103181
 H                  6.46257075    9.23133327   14.28050783
 H                  9.19669742    9.77884571   15.20670861
 H                  6.93259403    8.56766123   16.69967579
 H                  7.93405347   11.33819504   20.49227239
 H                  6.83622897   10.58060801   19.40522967
 H                  9.47933990    9.46159002   20.19469249
 H                  7.16613075    8.22624032   18.77860802
 H                  9.79338006    7.13190375   19.59330287
 H                  7.12406846    6.33423191   20.64501877
 H                  9.26278436    7.83604607   22.14997535

 1 2 1.0 31 1.0
 2 3 1.0 12 1.0 35 1.0
 3 4 1.0 6 1.0 36 1.0
 4 5 1.0
 5
 6 7 1.0 14 1.0 37 1.0
 7 8 1.0
 8
 9 10 1.0 12 1.0 32 1.0 33 1.0
 10 11 1.0
 11
 12 13 1.0 34 1.0
 13 14 1.0
 14 15 1.0 38 1.0
 15 16 1.0
 16 17 1.0 26 1.0 42 1.0
 17 18 1.0 20 1.0 43 1.0
 18 19 1.0
 19
 20 21 1.0 28 1.0 44 1.0
 21 22 1.0
 22
 23 24 1.0 26 1.0 39 1.0 40 1.0
 24 25 1.0
 25
 26 27 1.0 41 1.0
 27 28 1.0
 28 29 1.0 45 1.0
 29 30 1.0
 30
 31
 32
 33
 34
 35
 36
 37
 38
 39
 40
 41
 42
 43
 44
 45

