# freq=raman b3lyp/6-31+g(2d,p) geom=connectivity

310 9265/9265.com

0 1
O           7.74200         7.49400        12.34000
C           8.18600         7.77400        13.67600
C           7.68000         9.11000        14.19600
O           7.64200        10.08000        13.13900
H           7.46100         9.53800        12.31800
C           8.28300         9.55700        15.51800
O           7.65200        10.75900        15.98200
H           8.07100        10.95200        16.87000
C           8.07600         5.40300        14.60700
O           7.66900         4.82800        13.35700
H           7.85500         3.85100        13.46200
C           7.66800         6.85800        14.77200
O           8.25600         7.16000        16.04600
C           7.94900         8.47500        16.53200
O           8.84600         8.48900        17.65100
C           8.12300         8.33900        18.88200
C           8.62800         7.02900        19.46300
O           8.23700         5.96400        18.58300
H           8.41300         6.37800        17.69000
C           8.14600         6.62600        20.84700
O           8.71200         5.50800        21.54700
H           8.05100         5.19600        22.22900
C           8.00700        10.78100        19.43800
O           8.54200        11.53000        18.33800
H           8.46400        12.52200        18.44100
C           8.56600         9.42800        19.84600
O           8.15800         9.14600        21.19200
C           8.45900         7.84000        21.70700
O           7.65400         7.76000        22.89200

