# freq=raman b3lyp/6-31+g(2d,p) geom=connectivity

290 9795/9795.com

0 1
 O                  7.59500000    7.54700000   12.37400000
 C                  8.03100000    7.95900000   13.67800000
 C                  7.55600000    9.32800000   14.13600000
 O                  7.94900000   10.33500000   13.19200000
 H                  7.91900000   10.04000000   12.23700000
 C                  8.04300000    9.70600000   15.52500000
 O                  7.54500000   10.93500000   16.07400000
 H                  7.89100000   11.06000000   17.00300000
 C                  7.95100000    5.49700000   14.47800000
 O                  7.64600000    4.73000000   13.30400000
 H                  7.68000000    3.77800000   13.60700000
 C                  7.55000000    6.94500000   14.70400000
 O                  8.20400000    7.31900000   15.92500000
 C                  7.74200000    8.56000000   16.47700000
 O                  8.70800000    8.67000000   17.53200000
 C                  8.24400000    8.38300000   18.85900000
 C                  8.75100000    7.05100000   19.38600000
 O                  8.37200000    6.03400000   18.44700000
 H                  8.71200000    6.31100000   17.54800000
 C                  8.44200000    6.72800000   20.83900000
 O                  9.32300000    5.69200000   21.29700000
 H                  8.99300000    5.40000000   22.19500000
 C                  8.22000000   10.80000000   19.62200000
 O                  8.75200000   11.32000000   18.39400000
 H                  8.65300000   12.31100000   18.48900000
 C                  8.70800000    9.38800000   19.90100000
 O                  8.09700000    9.12300000   21.17200000
 C                  8.57800000    7.91400000   21.78000000
 O                  7.63900000    7.70800000   22.84500000
 H                  8.11388093    7.54955678   23.66413604
 H                  8.36012837    7.37232014   11.82112975
 H                  7.54589840    4.94749078   15.30191280
 H                  9.01564860    5.46709307   14.58061061
 H                  6.48891877    7.01741470   14.82131466
 H                  9.10097718    7.95946866   13.68497273
 H                  6.48653199    9.30714052   14.16251518
 H                  9.10748001    9.79852980   15.46825016
 H                  6.73055925    8.52996370   16.82482959
 H                  8.51963183   11.43690775   20.42789657
 H                  7.15166824   10.79316443   19.56266598
 H                  9.77423628    9.37196602   19.98922186
 H                  7.17417900    8.36503740   18.85123036
 H                  9.81804973    7.10932065   19.33211524
 H                  7.43664730    6.36626639   20.89657376
 H                  9.57700069    8.02211114   22.14770857

 1 2 1.0 31 1.0
 2 3 1.0 12 1.0 35 1.0
 3 4 1.0 6 1.0 36 1.0
 4 5 1.0
 5
 6 7 1.0 14 1.0 37 1.0
 7 8 1.0
 8
 9 10 1.0 12 1.0 32 1.0 33 1.0
 10 11 1.0
 11
 12 13 1.0 34 1.0
 13 14 1.0
 14 15 1.0 38 1.0
 15 16 1.0
 16 17 1.0 26 1.0 42 1.0
 17 18 1.0 20 1.0 43 1.0
 18 19 1.0
 19
 20 21 1.0 28 1.0 44 1.0
 21 22 1.0
 22
 23 24 1.0 26 1.0 39 1.0 40 1.0
 24 25 1.0
 25
 26 27 1.0 41 1.0
 27 28 1.0
 28 29 1.0 45 1.0
 29 30 1.0
 30
 31
 32
 33
 34
 35
 36
 37
 38
 39
 40
 41
 42
 43
 44
 45

