# freq=raman b3lyp/6-31+g(2d,p) geom=connectivity

290 9795/9795.com

0 1
O           7.59500         7.54700        12.37400
C           8.03100         7.95900        13.67800
C           7.55600         9.32800        14.13600
O           7.94900        10.33500        13.19200
H           7.91900        10.04000        12.23700
C           8.04300         9.70600        15.52500
O           7.54500        10.93500        16.07400
H           7.89100        11.06000        17.00300
C           7.95100         5.49700        14.47800
O           7.64600         4.73000        13.30400
H           7.68000         3.77800        13.60700
C           7.55000         6.94500        14.70400
O           8.20400         7.31900        15.92500
C           7.74200         8.56000        16.47700
O           8.70800         8.67000        17.53200
C           8.24400         8.38300        18.85900
C           8.75100         7.05100        19.38600
O           8.37200         6.03400        18.44700
H           8.71200         6.31100        17.54800
C           8.44200         6.72800        20.83900
O           9.32300         5.69200        21.29700
H           8.99300         5.40000        22.19500
C           8.22000        10.80000        19.62200
O           8.75200        11.32000        18.39400
H           8.65300        12.31100        18.48900
C           8.70800         9.38800        19.90100
O           8.09700         9.12300        21.17200
C           8.57800         7.91400        21.78000
O           7.63900         7.70800        22.84500

