# freq=raman b3lyp/6-31+g(2d,p) geom=connectivity

320 9655/9655.com

0 1
 O                  7.93200000    7.61400000   12.37700000
 C                  8.50100000    7.89500000   13.66400000
 C                  7.96500000    9.27400000   14.01100000
 O                  8.59700000   10.27800000   13.20400000
 H                  8.51700000   10.03200000   12.23800000
 C                  8.17700000    9.53500000   15.49300000
 O                  7.69000000   10.75500000   16.07200000
 H                  8.04000000   10.81500000   17.00700000
 C                  8.50900000    5.43500000   14.29500000
 O                  8.06600000    4.78900000   13.09300000
 H                  8.13500000    3.79400000   13.15900000
 C                  8.03800000    6.83600000   14.65100000
 O                  8.53100000    7.19000000   15.95200000
 C                  7.84700000    8.36600000   16.40700000
 O                  8.60100000    8.64400000   17.59600000
 C                  8.05800000    8.17000000   18.83700000
 C                  8.49600000    6.81400000   19.36700000
 O                  8.29600000    5.77200000   18.40100000
 H                  8.51200000    6.03800000   17.46200000
 C                  8.15300000    6.51400000   20.81700000
 O                  8.86300000    5.36600000   21.30400000
 H                  8.56000000    5.12000000   22.22500000
 C                  7.98900000   10.72300000   19.57300000
 O                  8.82200000   11.43400000   18.64500000
 H                  8.68300000   12.42100000   18.71600000
 C                  8.30100000    9.26400000   19.86400000
 O                  7.97400000    8.93200000   21.22100000
 C                  8.49600000    7.69000000   21.71700000
 O                  7.76900000    7.45000000   22.93100000
 H                  8.38730146    7.30757572   23.65142947
 H                  8.02106617   11.25049025   20.50339013
 H                  6.98519196   10.77010891   19.20550828
 H                  9.37047745    9.28024160   19.89322673
 H                  6.99876041    8.10877687   18.69856870
 H                  9.56173000    6.90444801   19.39763872
 H                  7.10258117    6.32292509   20.88778595
 H                  9.54855811    7.75122213   21.89940961
 H                  8.63600986    7.47477897   11.73935776
 H                  8.23640867    4.79777334   15.11019086
 H                  9.57788292    5.46559230   14.25687627
 H                  6.96835047    6.83941545   14.67817010
 H                  9.56922818    7.91214779   13.60488565
 H                  6.91405217    9.29003434   13.81062147
 H                  9.23986747    9.62854861   15.57338279
 H                  6.80118381    8.22431038   16.58333081

 1 2 1.0 38 1.0
 2 3 1.0 12 1.0 42 1.0
 3 4 1.0 6 1.0 43 1.0
 4 5 1.0
 5
 6 7 1.0 14 1.0 44 1.0
 7 8 1.0
 8
 9 10 1.0 12 1.0 39 1.0 40 1.0
 10 11 1.0
 11
 12 13 1.0 41 1.0
 13 14 1.0
 14 15 1.0 45 1.0
 15 16 1.0
 16 17 1.0 26 1.0 34 1.0
 17 18 1.0 20 1.0 35 1.0
 18 19 1.0
 19
 20 21 1.0 28 1.0 36 1.0
 21 22 1.0
 22
 23 24 1.0 26 1.0 31 1.0 32 1.0
 24 25 1.0
 25
 26 27 1.0 33 1.0
 27 28 1.0
 28 29 1.0 37 1.0
 29 30 1.0
 30
 31
 32
 33
 34
 35
 36
 37
 38
 39
 40
 41
 42
 43
 44
 45

