# freq=raman b3lyp/6-31+g(d,p) geom=connectivity

290 8000.com

0 1
O           7.48400         7.57200        22.87500
C           8.07100         7.95100        24.12800
C           7.57100         9.31300        24.57900
O           8.02500        10.27100        23.61200
H           7.93300         9.99100        22.65600
C           8.03400         9.75300        25.95900
O           7.53800        11.01300        26.43200
H           7.92800        11.10700        27.34800
C           7.93000         5.45900        24.94100
O           7.54900         4.80500        23.72200
H           7.76500         3.83600        23.83700
C           7.76300         6.94300        25.22400
O           8.38800         7.43100        26.42000
C           7.83000         8.63400        26.96700
O           8.70200         8.85800        28.08400
C           8.06600         8.44500        29.30200
C           8.63600         7.13500        29.82100
O           8.45500         6.16400        28.78100
H           8.97700         6.50900        28.00100
C           8.07900         6.60700        31.13300
O           8.81700         5.48500        31.63700
H           8.40900         5.05500        32.44300
C           7.76500        10.88500        30.23400
O           8.40300        11.55100        29.13500
H           8.06800        12.49000        29.06300
C           8.20000         9.44300        30.44100
O           7.48500         8.93300        31.57500
C           8.09000         7.75500        32.12900
O           7.40700         7.40200        33.34000

