# freq=raman b3lyp/6-31+g(2d,p) geom=connectivity
310 9000.com
310 9000.com
C           8.05300         8.05500         2.76700
0 1
O           7.94000        10.16200        23.24700
H           7.60000         9.67700        22.44100
C           8.14400         9.59100        25.61900
O           7.37400        10.67100        26.16600
H           7.59200        10.82700        27.12900
C           8.24600         5.27200        24.63400
O           8.08700         4.57000        23.39200
H           8.14200         3.59300        23.59700
C           7.99800         6.73900        24.94700
O           8.47400         7.22400        26.21000
C           7.88700         8.47000        26.61300
O           8.70900         8.58000        27.78400
C           8.24400         8.23300        29.09700
C           8.73900         6.85200        29.49500
O           8.57800         5.72400        28.62300
H           8.55600         5.91400        27.64200
C           8.42600         6.56200        30.95400
O           9.10100         5.41100        31.48200
H           8.69500         5.25600        32.38300
C           8.15700        10.70300        29.77700
O           8.23900        11.36500        28.50700
H           8.09300        12.34800        28.62600
C           8.66800         9.30500        30.08700
O           8.34300         9.02900        31.45700
C           8.76300         7.72200        31.87600
O           7.92300         7.54800        33.02700
C           8.54300         7.92700        34.26400
C           8.03200         9.26700        34.76800
O           8.27400        10.35900        33.86800

