# freq=raman b3lyp/6-31+g(2d,p) geom=connectivity

493 5234/5234.com

0 1
O           7.97700         7.56800        12.25200
C           8.58500         7.91200        13.50500
C           7.92600         9.12500        14.14000
O           7.76000        10.11400        13.11300
H           7.53200         9.58600        12.29600
C           8.60000         9.66100        15.39300
O           8.07900        10.90900        15.87200
H           8.63200        11.14100        16.67200
C           8.78000         5.42400        14.22300
O           8.16500         4.76500        13.10600
H           8.03600         3.81500        13.38900
C           8.42100         6.85500        14.58600
O           8.99800         7.22900        15.84500
C           8.56800         8.49400        16.36700
O           9.24500         8.79300        17.59700
C           8.57800         8.40100        18.80500
C           9.12500         7.09100        19.34900
O           9.06000         6.08500        18.32800
H           9.20700         6.44700        17.40800
C           8.46800         6.72900        20.67100
O           8.98900         5.61200        21.40600
H           8.77900         5.64600        22.38300
C           8.41100        10.80100        19.45000
O           8.95700        11.55800        18.36100
H           8.61800        12.49900        18.36300
C           8.86100         9.41900        19.89700
O           8.26200         9.07100        21.15300
C           8.76000         7.83100        21.67700
O           7.90000         7.65200        22.81200

