# freq=raman b3lyp/6-31+g(2d,p) geom=connectivity

493 5234/5234.com

0 1
 O                  7.97700000    7.56800000   12.25200000
 C                  8.58500000    7.91200000   13.50500000
 C                  7.92600000    9.12500000   14.14000000
 O                  7.76000000   10.11400000   13.11300000
 H                  7.53200000    9.58600000   12.29600000
 C                  8.60000000    9.66100000   15.39300000
 O                  8.07900000   10.90900000   15.87200000
 H                  8.63200000   11.14100000   16.67200000
 C                  8.78000000    5.42400000   14.22300000
 O                  8.16500000    4.76500000   13.10600000
 H                  8.03600000    3.81500000   13.38900000
 C                  8.42100000    6.85500000   14.58600000
 O                  8.99800000    7.22900000   15.84500000
 C                  8.56800000    8.49400000   16.36700000
 O                  9.24500000    8.79300000   17.59700000
 C                  8.57800000    8.40100000   18.80500000
 C                  9.12500000    7.09100000   19.34900000
 O                  9.06000000    6.08500000   18.32800000
 H                  9.20700000    6.44700000   17.40800000
 C                  8.46800000    6.72900000   20.67100000
 O                  8.98900000    5.61200000   21.40600000
 H                  8.77900000    5.64600000   22.38300000
 C                  8.41100000   10.80100000   19.45000000
 O                  8.95700000   11.55800000   18.36100000
 H                  8.61800000   12.49900000   18.36300000
 C                  8.86100000    9.41900000   19.89700000
 O                  8.26200000    9.07100000   21.15300000
 C                  8.76000000    7.83100000   21.67700000
 O                  7.90000000    7.65200000   22.81200000
 H                  8.43286598    7.52760160   23.60078317
 H                  9.79363113    7.88453462   21.94836824
 H                  7.41127914    6.62281503   20.54074722
 H                 10.16240129    7.25106335   19.55655309
 H                  7.52415335    8.32121953   18.63784044
 H                  9.92060967    9.45314075   20.04178179
 H                  8.50174281   11.42787521   20.31237649
 H                  7.36460567   10.71231509   19.24483206
 H                  8.66116678    7.38971120   11.60259341
 H                  8.58090791    4.82436688   15.08654066
 H                  9.83648437    5.40101883   14.05503380
 H                  7.36723972    6.82663176   14.76953340
 H                  9.62574194    8.10951408   13.35418749
 H                  6.94329159    8.81969377   14.43321030
 H                  9.62693162    9.83254404   15.14625299
 H                  7.53790357    8.36401502   16.62566051

 1 2 1.0 38 1.0
 2 3 1.0 12 1.0 42 1.0
 3 4 1.0 6 1.0 43 1.0
 4 5 1.0
 5
 6 7 1.0 14 1.0 44 1.0
 7 8 1.0
 8
 9 10 1.0 12 1.0 39 1.0 40 1.0
 10 11 1.0
 11
 12 13 1.0 41 1.0
 13 14 1.0
 14 15 1.0 45 1.0
 15 16 1.0
 16 17 1.0 26 1.0 34 1.0
 17 18 1.0 20 1.0 33 1.0
 18 19 1.0
 19
 20 21 1.0 28 1.0 32 1.0
 21 22 1.0
 22
 23 24 1.0 26 1.0 36 1.0 37 1.0
 24 25 1.0
 25
 26 27 1.0 35 1.0
 27 28 1.0
 28 29 1.0 31 1.0
 29 30 1.0
 30
 31
 32
 33
 34
 35
 36
 37
 38
 39
 40
 41
 42
 43
 44
 45

