# freq=raman b3lyp/6-31+g(2d,p) geom=connectivity

290 8723/8723.com

0 1
 O                  7.64500000    7.16000000   12.43300000
 C                  8.24400000    7.56000000   13.67400000
 C                  7.84900000    8.98000000   14.04600000
 O                  8.27100000   10.05200000   13.19200000
 H                  7.89000000    9.83800000   12.29200000
 C                  8.06900000    9.35200000   15.50300000
 O                  7.34400000   10.52700000   15.89100000
 H                  7.66600000   10.83500000   16.78600000
 C                  8.39900000    5.20600000   14.40800000
 O                  8.34300000    4.56600000   13.12500000
 H                  8.37600000    3.57000000   13.20500000
 C                  7.80700000    6.56700000   14.73900000
 O                  8.30300000    6.96400000   16.02500000
 C                  7.76800000    8.21900000   16.47100000
 O                  8.64100000    8.41500000   17.59300000
 C                  8.09300000    8.11400000   18.88400000
 C                  8.48600000    6.71600000   19.33400000
 O                  8.11500000    5.75800000   18.33200000
 H                  8.21000000    6.23400000   17.45800000
 C                  7.94900000    6.39900000   20.72000000
 O                  8.50300000    5.15800000   21.18200000
 H                  8.35400000    5.04300000   22.16400000
 C                  7.99900000   10.58100000   19.68200000
 O                  8.41600000   11.26800000   18.49300000
 H                  8.08600000   12.20300000   18.62300000
 C                  8.52200000    9.16900000   19.89000000
 O                  8.03100000    8.88300000   21.20800000
 C                  8.37300000    7.55000000   21.61700000
 O                  7.73300000    7.41400000   22.89400000
 H                  8.40034333    7.34091677   23.58023008
 H                  8.33387257    6.95488120   11.79661893
 H                  7.95658125    4.51829896   15.09809632
 H                  9.43724461    5.26915957   14.65891633
 H                  6.73912318    6.50414076   14.76324472
 H                  9.30832828    7.51321365   13.57441918
 H                  6.78428604    8.97643212   13.93983290
 H                  9.10891831    9.58080096   15.60845157
 H                  6.73746642    8.16095265   16.75301249
 H                  8.30133847   11.16929270   20.52307262
 H                  6.92993428   10.53662902   19.67654992
 H                  9.59116790    9.19925949   19.91939999
 H                  7.02638760    8.14728012   18.80570303
 H                  9.55364286    6.69782790   19.40261857
 H                  6.88139355    6.33361548   20.69099424
 H                  9.43244226    7.49832082   21.75775286

 1 2 1.0 31 1.0
 2 3 1.0 12 1.0 35 1.0
 3 4 1.0 6 1.0 36 1.0
 4 5 1.0
 5
 6 7 1.0 14 1.0 37 1.0
 7 8 1.0
 8
 9 10 1.0 12 1.0 32 1.0 33 1.0
 10 11 1.0
 11
 12 13 1.0 34 1.0
 13 14 1.0
 14 15 1.0 38 1.0
 15 16 1.0
 16 17 1.0 26 1.0 42 1.0
 17 18 1.0 20 1.0 43 1.0
 18 19 1.0
 19
 20 21 1.0 28 1.0 44 1.0
 21 22 1.0
 22
 23 24 1.0 26 1.0 39 1.0 40 1.0
 24 25 1.0
 25
 26 27 1.0 41 1.0
 27 28 1.0
 28 29 1.0 45 1.0
 29 30 1.0
 30
 31
 32
 33
 34
 35
 36
 37
 38
 39
 40
 41
 42
 43
 44
 45

