# freq=raman b3lyp/6-31+g(2d,p) geom=connectivity

290 8723/8723.com

0 1
O           7.64500         7.16000        12.43300
C           8.24400         7.56000        13.67400
C           7.84900         8.98000        14.04600
O           8.27100        10.05200        13.19200
H           7.89000         9.83800        12.29200
C           8.06900         9.35200        15.50300
O           7.34400        10.52700        15.89100
H           7.66600        10.83500        16.78600
C           8.39900         5.20600        14.40800
O           8.34300         4.56600        13.12500
H           8.37600         3.57000        13.20500
C           7.80700         6.56700        14.73900
O           8.30300         6.96400        16.02500
C           7.76800         8.21900        16.47100
O           8.64100         8.41500        17.59300
C           8.09300         8.11400        18.88400
C           8.48600         6.71600        19.33400
O           8.11500         5.75800        18.33200
H           8.21000         6.23400        17.45800
C           7.94900         6.39900        20.72000
O           8.50300         5.15800        21.18200
H           8.35400         5.04300        22.16400
C           7.99900        10.58100        19.68200
O           8.41600        11.26800        18.49300
H           8.08600        12.20300        18.62300
C           8.52200         9.16900        19.89000
O           8.03100         8.88300        21.20800
C           8.37300         7.55000        21.61700
O           7.73300         7.41400        22.89400

