# freq=raman b3lyp/6-31+g(2d,p) geom=connectivity

290 8885/8885.com

0 1
O           8.21900         7.82800        12.18000
C           8.54700         8.17000        13.53400
C           7.89900         9.48800        13.92600
O           8.23900        10.55700        13.03200
H           8.34600        10.14400        12.12700
C           8.29900         9.86600        15.34300
O           7.69700        11.07100        15.84000
H           7.86600        11.12000        16.82500
C           8.60700         5.70300        14.23900
O           8.21300         5.11700        12.99000
H           7.95900         4.15400        13.07700
C           8.08900         7.10500        14.51700
O           8.47400         7.44100        15.85800
C           7.97000         8.71600        16.28100
O           8.77600         8.87300        17.45800
C           8.21500         8.38800        18.68700
C           8.92800         7.11600        19.11900
O           8.66600         6.03600        18.21200
H           8.94100         6.32400        17.29500
C           8.59900         6.64900        20.52800
O           9.12300         5.41700        21.04600
H           8.62200         5.17100        21.87500
C           7.69500        10.66500        19.55300
O           8.30300        11.53200        18.58500
H           8.17800        12.48500        18.86000
C           8.51900         9.40700        19.77300
O           8.11400         8.92400        21.06200
C           8.82700         7.76900        21.52900
O           7.98500         7.47700        22.65300

