# freq=raman b3lyp/6-31+g(2d,p) geom=connectivity

290 8885/8885.com

0 1
 O                  8.21900000    7.82800000   12.18000000
 C                  8.54700000    8.17000000   13.53400000
 C                  7.89900000    9.48800000   13.92600000
 O                  8.23900000   10.55700000   13.03200000
 H                  8.34600000   10.14400000   12.12700000
 C                  8.29900000    9.86600000   15.34300000
 O                  7.69700000   11.07100000   15.84000000
 H                  7.86600000   11.12000000   16.82500000
 C                  8.60700000    5.70300000   14.23900000
 O                  8.21300000    5.11700000   12.99000000
 H                  7.95900000    4.15400000   13.07700000
 C                  8.08900000    7.10500000   14.51700000
 O                  8.47400000    7.44100000   15.85800000
 C                  7.97000000    8.71600000   16.28100000
 O                  8.77600000    8.87300000   17.45800000
 C                  8.21500000    8.38800000   18.68700000
 C                  8.92800000    7.11600000   19.11900000
 O                  8.66600000    6.03600000   18.21200000
 H                  8.94100000    6.32400000   17.29500000
 C                  8.59900000    6.64900000   20.52800000
 O                  9.12300000    5.41700000   21.04600000
 H                  8.62200000    5.17100000   21.87500000
 C                  7.69500000   10.66500000   19.55300000
 O                  8.30300000   11.53200000   18.58500000
 H                  8.17800000   12.48500000   18.86000000
 C                  8.51900000    9.40700000   19.77300000
 O                  8.11400000    8.92400000   21.06200000
 C                  8.82700000    7.76900000   21.52900000
 O                  7.98500000    7.47700000   22.65300000
 H                  9.02695308    7.70102980   11.67731682
 H                  8.26904082    5.06259028   15.02675566
 H                  9.67617919    5.73286265   14.26839527
 H                  7.02013072    7.06998866   14.48246488
 H                  9.60904191    8.27396296   13.61247728
 H                  6.83723035    9.35777218   13.90179425
 H                  9.35996373   10.00425062   15.35494671
 H                  6.92762630    8.67456572   16.51899217
 H                  7.60285825   11.18871226   20.48151245
 H                  6.72004949   10.38809122   19.20993582
 H                  9.56236205    9.64422161   19.77764043
 H                  7.16124794    8.22709860   18.59417037
 H                  9.97895903    7.31424802   19.08609332
 H                  7.53931434    6.50126533   20.51613540
 H                  8.52992356    7.27827336   23.41796146
 H                  9.85098492    7.95131088   21.78023220

 1 2 1.0 30 1.0
 2 3 1.0 12 1.0 34 1.0
 3 4 1.0 6 1.0 35 1.0
 4 5 1.0
 5
 6 7 1.0 14 1.0 36 1.0
 7 8 1.0
 8
 9 10 1.0 12 1.0 31 1.0 32 1.0
 10 11 1.0
 11
 12 13 1.0 33 1.0
 13 14 1.0
 14 15 1.0 37 1.0
 15 16 1.0
 16 17 1.0 26 1.0 41 1.0
 17 18 1.0 20 1.0 42 1.0
 18 19 1.0
 19
 20 21 1.0 28 1.0 43 1.0
 21 22 1.0
 22
 23 24 1.0 26 1.0 38 1.0 39 1.0
 24 25 1.0
 25
 26 27 1.0 40 1.0
 27 28 1.0
 28 29 1.0 45 1.0
 29 44 1.0
 30
 31
 32
 33
 34
 35
 36
 37
 38
 39
 40
 41
 42
 43
 44
 45

