# freq=raman b3lyp/6-31+g(2d,p) geom=connectivity

400 5160/5160.com

0 1
 O                  8.23200000    7.97300000   12.21500000
 C                  8.96200000    8.19400000   13.43100000
 C                  8.69300000    9.61400000   13.90200000
 O                  9.18700000   10.59800000   12.98200000
 H                  9.13800000   10.19500000   12.06800000
 C                  9.21500000    9.80400000   15.31700000
 O                  9.29200000   11.15500000   15.79500000
 H                  9.73200000   11.10700000   16.69200000
 C                  8.90900000    5.73500000   14.39100000
 O                  8.43900000    4.91900000   13.30800000
 H                  8.52300000    3.95700000   13.56800000
 C                  8.51400000    7.19900000   14.48900000
 O                  9.11700000    7.48700000   15.75900000
 C                  8.77700000    8.75900000   16.33000000
 O                  9.70900000    8.89100000   17.41300000
 C                  9.28500000    8.43000000   18.70500000
 C                  9.67500000    7.08400000   19.29500000
 O                  9.63800000    6.07000000   18.28100000
 H                  9.89800000    6.41200000   17.37700000
 C                  8.90700000    6.80200000   20.57600000
 O                  9.23000000    5.47000000   21.00000000
 H                  8.66400000    5.23900000   21.79100000
 C                  9.41100000   10.86900000   19.53300000
 O                 10.05300000   11.49100000   18.41100000
 H                  9.71300000   12.43200000   18.40000000
 C                  9.56300000    9.39000000   19.84900000
 O                  8.78200000    9.12800000   21.02400000
 C                  9.16900000    7.87900000   21.61600000
 O                  8.30900000    7.65300000   22.74200000
 H                  8.84167523    7.49583507   23.52504297
 H                 10.19774987    7.89211607   21.90994161
 H                  7.86305785    6.82448590   20.34237812
 H                 10.70161486    7.17232513   19.58337579
 H                  8.21856609    8.38986926   18.62748715
 H                 10.58656631    9.24154328   20.12317625
 H                  9.73432774   11.40143927   20.40298138
 H                  8.36230304   11.05121651   19.42376710
 H                  8.84856786    7.84142333   11.49103063
 H                  8.59245467    5.26396808   15.29809866
 H                  9.97818576    5.70010395   14.36810744
 H                  7.45056850    7.26199887   14.58922273
 H                 10.00877798    8.07147737   13.24621886
 H                  7.63044980    9.73313807   13.94314831
 H                 10.25034439    9.56257728   15.19585106
 H                  7.75255104    8.84218729   16.62746295

 1 2 1.0 38 1.0
 2 3 1.0 12 1.0 42 1.0
 3 4 1.0 6 1.0 43 1.0
 4 5 1.0
 5
 6 7 1.0 14 1.0 44 1.0
 7 8 1.0
 8
 9 10 1.0 12 1.0 39 1.0 40 1.0
 10 11 1.0
 11
 12 13 1.0 41 1.0
 13 14 1.0
 14 15 1.0 45 1.0
 15 16 1.0
 16 17 1.0 26 1.0 34 1.0
 17 18 1.0 20 1.0 33 1.0
 18 19 1.0
 19
 20 21 1.0 28 1.0 32 1.0
 21 22 1.0
 22
 23 24 1.0 26 1.0 36 1.0 37 1.0
 24 25 1.0
 25
 26 27 1.0 35 1.0
 27 28 1.0
 28 29 1.0 31 1.0
 29 30 1.0
 30
 31
 32
 33
 34
 35
 36
 37
 38
 39
 40
 41
 42
 43
 44
 45

