# freq=raman b3lyp/6-31+g(d,p) geom=connectivity

450 9000.com

0 1
O          10.69600         7.94100        21.84400
C          11.46300         7.87100        23.05400
C          12.10400         9.20400        23.40500
O          12.96600         9.62300        22.33800
H          12.61700         9.40900        21.42500
C          12.60600         9.32200        24.83500
O          12.82400        10.73100        25.00000
H          13.34300        11.18300        24.27400
C          10.38900         5.94900        23.75500
O          10.04000         4.92700        24.69900
H           9.81000         4.13900        24.12800
C          10.60700         7.38200        24.21100
O          11.30300         7.44800        25.46400
C          11.73300         8.73500        25.93200
O          12.47200         8.59000        27.15400
C          11.51500         8.71900        28.21500
C          10.80800         7.45600        28.68000
O           9.85200         7.04700        27.69100
H          10.34500         7.00400        26.82300
C          10.14600         7.49200        30.04800
O           9.35300         6.35600        30.42300
H           8.61800         6.22900        29.75700
C          12.56600        10.64800        28.95600
O          13.26300        11.54000        29.83700
H          13.55700        12.43400        29.50000
C          12.29800         9.22400        29.41600
O          11.71100         9.20000        30.72500
C          11.11000         7.96000        31.12500
O          10.52600         8.38500        32.36500

