# freq=raman b3lyp/6-31+g(2d,p) geom=connectivity

320 5227/5227.com

0 1
O           7.98000         7.44200        12.21200
C           8.53700         7.73400        13.50100
C           8.05300         9.10900        13.93300
O           8.43400        10.10300        12.97100
H           8.23800         9.75900        12.05300
C           8.37000         9.47000        15.37500
O           7.75100        10.64900        15.90900
H           8.18800        10.76700        16.80000
C           8.64100         5.38900        14.37600
O           8.22000         4.57400        13.27200
H           8.26500         3.62100        13.57200
C           8.02400         6.76600        14.55500
O           8.57100         7.08400        15.84300
C           7.99800         8.31900        16.29600
O           8.73800         8.50700        17.51200
C           8.03600         8.32500        18.75000
C           8.15300         6.89600        19.25400
O           7.78900         5.84500        18.34800
H           8.22600         6.12900        17.49500
C           7.63200         6.59300        20.65000
O           7.93500         5.29300        21.17500
H           7.63500         5.22400        22.12600
C           8.33600        10.62800        19.53300
O           8.86600        11.13800        18.30100
H           8.84500        12.13400        18.38500
C           8.60300         9.17200        19.87800
O           8.01000         8.90800        21.15700
C           8.23900         7.57500        21.63800
O           7.28800         7.49000        22.70900

