# freq=raman b3lyp/6-31+g(2d,p) geom=connectivity
450 10000.com
450 10000.com
C          11.42000         7.87300         1.99100
0 1
O          12.88600         9.60300        22.56000
H          12.41400         9.62400        21.67800
C          12.60400         8.99000        24.83800
O          12.69500        10.23100        25.55200
H          12.90000        11.12500        25.15300
C          10.47500         5.63200        23.43400
O          10.06900         4.58800        24.33100
H          10.03300         3.66000        23.95900
C          10.60500         7.03800        23.99600
O          11.45700         6.86800        25.13800
C          11.77200         8.11900        25.76600
O          12.41600         7.69300        26.97500
C          11.59000         7.80400        28.14300
C          11.03300         6.52700        28.75100
O          10.28800         5.84700        27.73200
H          10.72200         5.89000        26.83200
C          10.16200         6.87200        29.94800
O           9.50600         5.67700        30.39500
H           8.83700         5.46500        29.68200
C          12.93700         9.94900        28.66300
O          13.66100        10.92400        29.42700
H          14.54000        10.70800        29.85300
C          12.42000         8.60000        29.13600
O          11.70500         8.77100        30.36800
C          11.09500         7.59000        30.91000
O          10.49700         7.94000        32.16700
C          11.33200         7.74200        33.31700
C          11.90500         9.13100        33.54200
O          13.06800         9.30600        32.72000

