# freq=raman b3lyp/6-31+g(2d,p) geom=connectivity

450 7275/7275.com

0 1
O          10.32700         7.81000        11.90300
C          11.28100         7.80000        12.97500
C          11.64200         9.19500        13.46000
O          12.67600         9.66700        12.58300
H          12.46100         9.54000        11.61500
C          12.10800         9.29800        14.90300
O          12.41800        10.63400        15.32700
H          12.54500        11.29400        14.58700
C          10.35100         5.69900        13.60700
O           9.39800         4.96400        14.38800
H           9.38400         4.01700        14.06800
C          10.43600         7.14900        14.05700
O          10.87200         7.37600        15.40600
C          11.08700         8.71700        15.86800
O          11.72100         8.31500        17.09000
C          10.97000         8.42200        18.30800
C          10.25600         7.10700        18.57800
O           9.28300         6.78500        17.57300
H           9.63300         7.01500        16.66500
C           9.63500         7.19700        19.96200
O           8.95500         5.94900        20.15900
H           8.49600         5.71700        19.30100
C          12.79300         9.88500        19.07400
O          12.00700        11.08400        19.00300
H          11.71400        11.25000        18.06100
C          11.96200         8.66400        19.43400
O          11.23700         8.81500        20.66400
C          10.70900         7.52100        20.98800
O          10.11700         7.67800        22.28500

