# freq=raman b3lyp/6-31+g(2d,p) geom=connectivity

450 7275/7275.com

0 1
 O                 10.32700000    7.81000000   11.90300000
 C                 11.28100000    7.80000000   12.97500000
 C                 11.64200000    9.19500000   13.46000000
 O                 12.67600000    9.66700000   12.58300000
 H                 12.46100000    9.54000000   11.61500000
 C                 12.10800000    9.29800000   14.90300000
 O                 12.41800000   10.63400000   15.32700000
 H                 12.54500000   11.29400000   14.58700000
 C                 10.35100000    5.69900000   13.60700000
 O                  9.39800000    4.96400000   14.38800000
 H                  9.38400000    4.01700000   14.06800000
 C                 10.43600000    7.14900000   14.05700000
 O                 10.87200000    7.37600000   15.40600000
 C                 11.08700000    8.71700000   15.86800000
 O                 11.72100000    8.31500000   17.09000000
 C                 10.97000000    8.42200000   18.30800000
 C                 10.25600000    7.10700000   18.57800000
 O                  9.28300000    6.78500000   17.57300000
 H                  9.63300000    7.01500000   16.66500000
 C                  9.63500000    7.19700000   19.96200000
 O                  8.95500000    5.94900000   20.15900000
 H                  8.49600000    5.71700000   19.30100000
 C                 12.79300000    9.88500000   19.07400000
 O                 12.00700000   11.08400000   19.00300000
 H                 11.71400000   11.25000000   18.06100000
 C                 11.96200000    8.66400000   19.43400000
 O                 11.23700000    8.81500000   20.66400000
 C                 10.70900000    7.52100000   20.98800000
 O                 10.11700000    7.67800000   22.28500000
 H                 10.79041296    7.81784241   11.06229379
 H                 11.31369993    5.24358609   13.71047477
 H                 10.05812214    5.66854923   12.57831379
 H                  9.45157084    7.56073630   13.97780117
 H                 12.14552253    7.21539380   12.73891444
 H                 10.78485133    9.82405371   13.33963559
 H                 13.00228466    8.71731458   14.99221542
 H                 10.19140495    9.28921414   15.99201810
 H                 10.80933366    7.75791839   22.94521751
 H                 11.47857894    6.77765574   20.99735772
 H                  8.91157647    7.98538830   19.96351053
 H                 10.98869236    6.32734020   18.59187452
 H                 10.26701473    9.22636090   18.24704713
 H                 12.60915297    7.81574497   19.51497187
 H                 13.55511732   10.01468676   19.81376924
 H                 13.25717787    9.71932810   18.12426755

 1 2 1.0 30 1.0
 2 3 1.0 12 1.0 34 1.0
 3 4 1.0 6 1.0 35 1.0
 4 5 1.0
 5
 6 7 1.0 14 1.0 36 1.0
 7 8 1.0
 8
 9 10 1.0 12 1.0 31 1.0 32 1.0
 10 11 1.0
 11
 12 13 1.0 33 1.0
 13 14 1.0
 14 15 1.0 37 1.0
 15 16 1.0
 16 17 1.0 26 1.0 42 1.0
 17 18 1.0 20 1.0 41 1.0
 18 19 1.0
 19
 20 21 1.0 28 1.0 40 1.0
 21 22 1.0
 22
 23 24 1.0 26 1.0 44 1.0 45 1.0
 24 25 1.0
 25
 26 27 1.0 43 1.0
 27 28 1.0
 28 29 1.0 39 1.0
 29 38 1.0
 30
 31
 32
 33
 34
 35
 36
 37
 38
 39
 40
 41
 42
 43
 44
 45

