# freq=raman b3lyp/6-31+g(d,p) geom=connectivity

550 9000.com

0 1
 O                  9.14100000    7.24500000   22.44000000
 C                  9.81100000    7.17800000   23.70700000
 C                 10.30400000    8.53400000   24.18700000
 O                 11.45600000    8.73000000   23.35400000
 H                 11.21600000    8.74100000   22.38400000
 C                 10.91600000    8.57300000   25.57800000
 O                 10.74000000    9.86400000   26.17800000
 H                 11.02900000   10.61900000   25.58900000
 C                  8.63400000    5.04900000   24.23100000
 O                  7.87800000    4.07100000   24.96000000
 H                  6.90100000    4.28100000   24.91500000
 C                  9.04100000    6.41100000   24.76900000
 O                  9.93200000    6.36100000   25.89300000
 C                 10.22200000    7.61400000   26.53100000
 O                 10.85400000    7.32600000   27.78700000
 C                 10.08400000    7.29700000   28.99800000
 C                  9.95400000    5.83900000   29.40600000
 O                  9.03200000    5.14200000   28.55500000
 H                  9.35400000    5.38100000   27.63900000
 C                  9.56200000    5.71200000   30.86900000
 O                 10.21300000    4.50700000   31.29600000
 H                  9.92200000    3.80300000   30.64700000
 C                 11.57600000    9.48300000   29.70300000
 O                 10.74300000   10.65000000   29.76100000
 H                  9.99100000   10.69900000   29.10300000
 C                 11.05100000    8.06700000   29.88200000
 O                 10.43300000    8.08100000   31.17600000
 C                 10.25400000    6.76500000   31.71900000
 O                  9.53100000    6.82200000   32.95700000
 H                 10.15153457    6.85568947   33.68871160
 H                 11.23064066    6.38932806   31.94248066
 H                  8.50291670    5.68321042   31.01871212
 H                 10.91414890    5.38205443   29.28677405
 H                  9.13936880    7.78843414   28.89281262
 H                 11.91963642    7.44752944   29.96340641
 H                 12.06094925    9.50616347   28.74948666
 H                 12.33608265    9.61834268   30.44384865
 H                  9.79192950    7.28226137   21.73537075
 H                  9.54189666    4.56330862   23.93992005
 H                  8.08329689    5.23874142   23.33343425
 H                  8.16373990    6.96180601   25.03719295
 H                 10.69519292    6.60238813   23.52874777
 H                  9.57574274    9.30450987   24.04258424
 H                 11.95843256    8.33811737   25.52264199
 H                  9.27862312    8.06060475   26.76655096

 1 2 1.0 38 1.0
 2 3 1.0 12 1.0 42 1.0
 3 4 1.0 6 1.0 43 1.0
 4 5 1.0
 5
 6 7 1.0 14 1.0 44 1.0
 7 8 1.0
 8
 9 10 1.0 12 1.0 39 1.0 40 1.0
 10 11 1.0
 11
 12 13 1.0 41 1.0
 13 14 1.0
 14 15 1.0 45 1.0
 15 16 1.0
 16 17 1.0 26 1.0 34 1.0
 17 18 1.0 20 1.0 33 1.0
 18 19 1.0
 19
 20 21 1.0 28 1.0 32 1.0
 21 22 1.0
 22
 23 24 1.0 26 1.0 36 1.0 37 1.0
 24 25 1.0
 25
 26 27 1.0 35 1.0
 27 28 1.0
 28 29 1.0 31 1.0
 29 30 1.0
 30
 31
 32
 33
 34
 35
 36
 37
 38
 39
 40
 41
 42
 43
 44
 45

