# freq=raman b3lyp/6-31+g(d,p) geom=connectivity

6000.pdb

0 1
 O                  7.83091257    7.74439522   22.81825313
 C                  8.33500000    8.12900000   24.10000000
 C                  7.65100000    9.40900000   24.55300000
 O                  7.87700000   10.50400000   23.65300000
 H                  7.99000000   10.17200000   22.71600000
 C                  7.95300000    9.70700000   26.01200000
 O                  6.94300000   10.62900000   26.44600000
 H                  7.13300000   11.09700000   27.31000000
 C                  8.43800000    5.58600000   24.84600000
 O                  7.88300000    4.81100000   23.77300000
 H                  7.87500000    3.85500000   24.06600000
 C                  8.04800000    7.03100000   25.11000000
 O                  8.62500000    7.39900000   26.37200000
 C                  7.91300000    8.50700000   26.94300000
 O                  8.68400000    8.77900000   28.12200000
 C                  7.98800000    8.42600000   29.32600000
 C                  8.47300000    7.06900000   29.80900000
 O                  8.36700000    6.03200000   28.82300000
 H                  8.52200000    6.37700000   27.89700000
 C                  7.94300000    6.70800000   31.18700000
 O                  8.62400000    5.62900000   31.84400000
 H                  8.23000000    5.39800000   32.73300000
 C                  7.59600000   10.90100000   30.09500000
 O                  7.69200000   11.66900000   28.88700000
 H                  7.73800000   12.62900000   29.16300000
 C                  8.18100000    9.52400000   30.36000000
 O                  7.59100000    9.03400000   31.57400000
 C                  8.18100000    7.86000000   32.15000000
 O                  7.42700000    7.55600000   33.33300000
 H                  8.02908116    7.36989970   34.05719952
 H                  9.22081419    7.99661963   32.36218277
 H                  6.89610278    6.49455383   31.12914721
 H                  9.52595317    7.19477222   29.95172693
 H                  6.94399027    8.35162093   29.10371318
 H                  9.23199363    9.63988540   30.52396027
 H                  8.00352561   11.52959291   30.85899858
 H                  6.54684398   10.79908488   30.27880685
 H                  6.90770735    8.23674902   27.19048958
 H                  8.91210930   10.17587297   26.08388529
 H                  6.60055193    9.21025932   24.50871692
 H                  9.39086772    8.29016296   24.03620454
 H                  6.98707557    7.02950158   25.24905796
 H                  8.23353730    5.04681332   25.74731722
 H                  9.49915683    5.57810862   24.70894564
 H                  8.56510699    7.56663254   22.22583522

 1 2 1.0 45 1.0
 2 3 1.0 12 1.0 41 1.0
 3 4 1.0 6 1.0 40 1.0
 4 5 1.0
 5
 6 7 1.0 14 1.0 39 1.0
 7 8 1.0
 8
 9 10 1.0 12 1.0 43 1.0 44 1.0
 10 11 1.0
 11
 12 13 1.0 42 1.0
 13 14 1.0
 14 15 1.0 38 1.0
 15 16 1.0
 16 17 1.0 26 1.0 34 1.0
 17 18 1.0 20 1.0 33 1.0
 18 19 1.0
 19
 20 21 1.0 28 1.0 32 1.0
 21 22 1.0
 22
 23 24 1.0 26 1.0 36 1.0 37 1.0
 24 25 1.0
 25
 26 27 1.0 35 1.0
 27 28 1.0
 28 29 1.0 31 1.0
 29 30 1.0
 30
 31
 32
 33
 34
 35
 36
 37
 38
 39
 40
 41
 42
 43
 44
 45

