# freq=raman b3lyp/6-31+g(2d,p) geom=connectivity

400 6907/6907.com

0 1
O           8.80500         7.84800        12.27300
C           9.65500         8.25500        13.35400
C           9.23100         9.61000        13.89700
O           9.79900        10.48300        12.91000
H           9.70800        10.12500        11.98100
C           9.58900         9.97500        15.32900
O           8.88700        11.14400        15.77500
H           9.52600        11.46700        16.47200
C           9.65100         5.83300        14.27900
O           8.83100         5.25500        13.25400
H           8.60300         4.32200        13.53000
C           9.22200         7.28200        14.43900
O           9.95500         7.59800        15.63200
C           9.48600         8.79100        16.27600
O          10.45200         8.92800        17.32800
C          10.09400         8.48200        18.64300
C          10.63800         7.18200        19.21400
O          10.33600         6.25000        18.16600
H          10.29000         6.82200        17.34700
C           9.94400         6.85200        20.52600
O          10.28900         5.58700        21.10900
H           9.92900         5.52700        22.04000
C           9.92200        10.97500        19.36800
O          10.26400        11.59300        18.11800
H          10.31000        12.54600        18.41900
C          10.36900         9.55700        19.68200
O           9.69200         9.24300        20.90800
C          10.13900         8.01000        21.49100
O           9.31000         7.93100        22.66000

