# freq=raman b3lyp/6-31+g(d,p) geom=connectivity

320 5000.com

0 1
 O                  7.79100000    7.70600000   12.37900000
 C                  8.33500000    8.00300000   13.67300000
 C                  7.90400000    9.38300000   14.14400000
 O                  8.43900000   10.40600000   13.29200000
 H                  8.14500000   10.12000000   12.38100000
 C                  8.42400000    9.69900000   15.53700000
 O                  7.84000000   10.81900000   16.21800000
 H                  8.35200000   11.11300000   17.02600000
 C                  8.30900000    5.63800000   14.35100000
 O                  7.87900000    4.97800000   13.15100000
 H                  8.19100000    4.03300000   13.24600000
 C                  7.79600000    7.02500000   14.70400000
 O                  8.44500000    7.29100000   15.95600000
 C                  8.12200000    8.57400000   16.51300000
 O                  9.02000000    8.78700000   17.61100000
 C                  8.43200000    8.49600000   18.88800000
 C                  8.94600000    7.14100000   19.34600000
 O                  8.87400000    6.07700000   18.38700000
 H                  9.17300000    6.56100000   17.56500000
 C                  8.48200000    6.69100000   20.72200000
 O                  9.15500000    5.57000000   21.31300000
 H                  8.75500000    5.30500000   22.19000000
 C                  8.52700000   11.00000000   19.66000000
 O                  8.90500000   11.80400000   18.53400000
 H                  8.81500000   12.77000000   18.77500000
 C                  8.87600000    9.54000000   19.90000000
 O                  8.22200000    9.15400000   21.11700000
 C                  8.68000000    7.89400000   21.63000000
 O                  7.83100000    7.66700000   22.76400000
 H                  8.37123571    7.51123715   23.54212808
 H                  9.70182798    7.96535695   21.93931499
 H                  7.43628137    6.47000412   20.67166750
 H                  9.99663180    7.30094032   19.47046649
 H                  7.36481821    8.48226705   18.81161656
 H                  9.93421608    9.45823668   20.03562256
 H                  8.03185139   10.50821316   18.84890595
 H                  9.59325408   11.02871014   19.74472281
 H                  8.50718751    7.56299102   11.75592386
 H                  8.05887308    4.99462396   15.16855966
 H                  9.37628563    5.70089411   14.30803824
 H                  6.72939508    7.05708637   14.78289492
 H                  9.40302180    7.94633767   13.64108119
 H                  6.83560269    9.44150074   14.14179661
 H                  9.48356996    9.83906249   15.48606864
 H                  7.10318433    8.60858456   16.83814386

 1 2 1.0 38 1.0
 2 3 1.0 12 1.0 42 1.0
 3 4 1.0 6 1.0 43 1.0
 4 5 1.0
 5
 6 7 1.0 14 1.0 44 1.0
 7 8 1.0
 8
 9 10 1.0 12 1.0 39 1.0 40 1.0
 10 11 1.0
 11
 12 13 1.0 41 1.0
 13 14 1.0
 14 15 1.0 45 1.0
 15 16 1.0
 16 17 1.0 26 1.0 34 1.0
 17 18 1.0 20 1.0 33 1.0
 18 19 1.0
 19
 20 21 1.0 28 1.0 32 1.0
 21 22 1.0
 22
 23 24 1.0 26 1.0 36 1.0 37 1.0
 24 25 1.0
 25
 26 27 1.0 35 1.0
 27 28 1.0
 28 29 1.0 31 1.0
 29 30 1.0
 30
 31
 32
 33
 34
 35
 36
 37
 38
 39
 40
 41
 42
 43
 44
 45

