# freq=raman b3lyp/6-31+g(2d,p) geom=connectivity

493 9074/9074.com

0 1
O           7.58000         7.74900        12.19800
C           8.22700         8.15900        13.41100
C           7.52400         9.42100        13.88400
O           7.64300        10.48500        12.92900
H           7.91700        10.02300        12.08500
C           7.92500         9.88900        15.27300
O           7.20200        11.02700        15.76400
H           7.52400        11.38200        16.64200
C           8.38600         5.71400        14.36000
O           7.97900         4.98400        13.19300
H           8.22500         4.01800        13.27200
C           7.95000         7.16100        14.52300
O           8.50600         7.61300        15.76600
C           7.91900         8.79600        16.33000
O           8.81000         9.00200        17.43600
C           8.23300         8.66700        18.70600
C           8.85200         7.35300        19.15500
O           8.58200         6.35100        18.16400
H           8.95100         6.59400        17.26700
C           8.38700         6.79500        20.49000
O           9.01000         5.61200        21.01200
H           8.60800         5.29500        21.87100
C           7.79200        10.99800        19.54600
O           8.11600        11.70600        18.34100
H           7.99700        12.68200        18.52600
C           8.45400         9.66100        19.83500
O           7.97100         9.22300        21.11300
C           8.54200         7.95300        21.46200
O           7.71200         7.71700        22.60800

