# freq=raman b3lyp/6-31+g(2d,p) geom=connectivity

493 9074/9074.com

0 1
 O                  7.58000000    7.74900000   12.19800000
 C                  8.22700000    8.15900000   13.41100000
 C                  7.52400000    9.42100000   13.88400000
 O                  7.64300000   10.48500000   12.92900000
 H                  7.91700000   10.02300000   12.08500000
 C                  7.92500000    9.88900000   15.27300000
 O                  7.20200000   11.02700000   15.76400000
 H                  7.52400000   11.38200000   16.64200000
 C                  8.38600000    5.71400000   14.36000000
 O                  7.97900000    4.98400000   13.19300000
 H                  8.22500000    4.01800000   13.27200000
 C                  7.95000000    7.16100000   14.52300000
 O                  8.50600000    7.61300000   15.76600000
 C                  7.91900000    8.79600000   16.33000000
 O                  8.81000000    9.00200000   17.43600000
 C                  8.23300000    8.66700000   18.70600000
 C                  8.85200000    7.35300000   19.15500000
 O                  8.58200000    6.35100000   18.16400000
 H                  8.95100000    6.59400000   17.26700000
 C                  8.38700000    6.79500000   20.49000000
 O                  9.01000000    5.61200000   21.01200000
 H                  8.60800000    5.29500000   21.87100000
 C                  7.79200000   10.99800000   19.54600000
 O                  8.11600000   11.70600000   18.34100000
 H                  7.99700000   12.68200000   18.52600000
 C                  8.45400000    9.66100000   19.83500000
 O                  7.97100000    9.22300000   21.11300000
 C                  8.54200000    7.95300000   21.46200000
 O                  7.71200000    7.71700000   22.60800000
 H                  8.26507282    7.55873072   23.37654491
 H                  9.56409796    8.06705790   21.75730758
 H                  7.34117325    6.58730328   20.40050983
 H                  9.91184504    7.49042749   19.20736577
 H                  7.18042893    8.52470811   18.57658921
 H                  9.50739919    9.82742215   19.92191262
 H                  8.01706407   11.64746765   20.36602313
 H                  6.73454120   10.83467449   19.54362067
 H                  8.24350303    7.52683843   11.54072687
 H                  8.02986342    5.17554781   15.21330884
 H                  9.45547641    5.69791960   14.38935349
 H                  6.88773473    7.14285073   14.65013421
 H                  9.27574981    8.31836530   13.27090525
 H                  6.48284779    9.18030103   13.93846166
 H                  8.94333140   10.20595772   15.18675055
 H                  6.92470061    8.59904476   16.67274969

 1 2 1.0 38 1.0
 2 3 1.0 12 1.0 42 1.0
 3 4 1.0 6 1.0 43 1.0
 4 5 1.0
 5
 6 7 1.0 14 1.0 44 1.0
 7 8 1.0
 8
 9 10 1.0 12 1.0 39 1.0 40 1.0
 10 11 1.0
 11
 12 13 1.0 41 1.0
 13 14 1.0
 14 15 1.0 45 1.0
 15 16 1.0
 16 17 1.0 26 1.0 34 1.0
 17 18 1.0 20 1.0 33 1.0
 18 19 1.0
 19
 20 21 1.0 28 1.0 32 1.0
 21 22 1.0
 22
 23 24 1.0 26 1.0 36 1.0 37 1.0
 24 25 1.0
 25
 26 27 1.0 35 1.0
 27 28 1.0
 28 29 1.0 31 1.0
 29 30 1.0
 30
 31
 32
 33
 34
 35
 36
 37
 38
 39
 40
 41
 42
 43
 44
 45

