# freq=raman b3lyp/6-31+g(2d,p) geom=connectivity

483 8000.com

0 1
C           8.11000         7.98700        23.92900
C           7.69700         9.33000        24.51000
O           7.69600        10.30500        23.45700
H           7.41700         9.79800        22.64200
C           8.46400         9.69200        25.77200
O           8.03500        10.97900        26.24000
H           8.35500        11.06800        27.18400
C           8.39600         5.56000        24.64600
O           7.87600         4.77500        23.56300
H           7.96300         3.79500        23.73800
C           7.80600         6.92300        24.97100
O           8.44300         7.33800        26.18800
C           8.17300         8.60900        26.79800
O           8.92700         8.80900        28.00200
C           8.26300         8.50100        29.23700
C           8.60600         7.10100        29.72100
O           8.22900         6.10800        28.75500
H           8.45200         6.53900        27.88100
C           7.98400         6.68400        31.04400
O           8.64500         5.47100        31.43200
H           8.26000         5.26600        32.33200
C           7.91700        10.91100        30.03300
O           8.43800        11.59200        28.88200
H           8.22300        12.56400        28.96900
C           8.46900         9.52800        30.33800
O           7.89400         9.02000        31.55000
C           8.36900         7.76000        32.04600
O           7.60600         7.68300        33.25800
C           8.26400         8.03100        34.48500

