# freq=raman b3lyp/6-31+g(d,p) geom=connectivity

280 8000.com

0 1
 O                  7.67600000    7.60600000   22.97300000
 C                  8.29200000    7.91500000   24.23200000
 C                  7.89100000    9.32200000   24.64500000
 O                  8.07100000   10.29600000   23.60700000
 H                  7.89500000    9.79600000   22.75900000
 C                  8.37900000    9.64700000   26.04700000
 O                  7.96800000   10.96100000   26.45000000
 H                  8.08300000   10.94800000   27.44300000
 C                  8.27500000    5.46200000   25.07500000
 O                  7.99600000    4.78300000   23.84200000
 H                  7.98300000    3.79300000   23.98200000
 C                  7.95700000    6.92500000   25.33600000
 O                  8.48800000    7.35100000   26.60000000
 C                  7.98400000    8.60500000   27.08100000
 O                  8.68800000    8.90500000   28.29500000
 C                  8.22500000    8.42200000   29.56400000
 C                  8.96100000    7.15000000   29.95200000
 O                  8.75100000    6.04500000   29.06000000
 H                  8.78800000    6.42400000   28.13600000
 C                  8.57300000    6.75200000   31.36700000
 O                  9.20900000    5.61100000   31.96100000
 H                  8.70400000    5.36500000   32.78800000
 C                  7.60900000   10.77600000   30.09500000
 O                  8.32700000   11.55700000   29.12800000
 H                  8.04100000   12.51300000   29.17800000
 C                  8.32000000    9.53100000   30.59900000
 O                  7.81000000    9.04800000   31.85000000
 C                  8.52300000    7.90900000   32.35300000
 O                  7.80400000    7.56000000   33.54500000
 H                  8.35615865    7.44451578   22.31504327
 H                  8.42699640    7.35476716   34.24596717
 H                  7.39575442   11.40156242   30.93648558
 H                  6.68033119   10.47501680   29.65695507
 H                  9.35375474    9.77204033   30.73372450
 H                  7.19012997    8.17264777   29.45552198
 H                 10.00811058    7.37013498   29.95212993
 H                  7.55096516    6.45048425   31.26987616
 H                  9.51997477    8.19925531   32.61125020
 H                  7.77461219    4.90696497   25.84079903
 H                  9.32533863    5.35017552   25.24583338
 H                  6.89310280    6.96869520   25.44142046
 H                  9.35255983    7.90245865   24.09073588
 H                  6.82804220    9.26656336   24.75430460
 H                  9.44827343    9.65440607   26.00827699
 H                  6.92506984    8.57599102   27.23174946

 1 2 1.0 30 1.0
 2 3 1.0 12 1.0 42 1.0
 3 4 1.0 6 1.0 43 1.0
 4 5 1.0
 5
 6 7 1.0 14 1.0 44 1.0
 7 8 1.0
 8
 9 10 1.0 12 1.0 39 1.0 40 1.0
 10 11 1.0
 11
 12 13 1.0 41 1.0
 13 14 1.0
 14 15 1.0 45 1.0
 15 16 1.0
 16 17 1.0 26 1.0 35 1.0
 17 18 1.0 20 1.0 36 1.0
 18 19 1.0
 19
 20 21 1.0 28 1.0 37 1.0
 21 22 1.0
 22
 23 24 1.0 26 1.0 32 1.0 33 1.0
 24 25 1.0
 25
 26 27 1.0 34 1.0
 27 28 1.0
 28 29 1.0 38 1.0
 29 31 1.0
 30
 31
 32
 33
 34
 35
 36
 37
 38
 39
 40
 41
 42
 43
 44
 45

