# freq=raman b3lyp/6-31+g(2d,p) geom=connectivity

550 8915/8915.com

0 1
 O                  9.74400000    7.68900000   11.63000000
 C                 10.71000000    7.58700000   12.68700000
 C                 10.71500000    8.99900000   13.25000000
 O                 11.10700000    9.99600000   12.29500000
 H                 10.64800000    9.75400000   11.44000000
 C                 11.48000000    9.06100000   14.56200000
 O                 11.42400000   10.32900000   15.23300000
 H                 11.48600000   11.06900000   14.56400000
 C                  9.88300000    5.21600000   13.45300000
 O                  9.25400000    4.32600000   14.38700000
 H                  9.13600000    3.53100000   13.79200000
 C                 10.25100000    6.65100000   13.79200000
 O                 11.10000000    6.79900000   14.94000000
 C                 10.92300000    8.07400000   15.57500000
 O                 11.65200000    7.88800000   16.79600000
 C                 10.92500000    7.75800000   18.02600000
 C                 10.42000000    6.36900000   18.38100000
 O                  9.35000000    5.93300000   17.53000000
 H                  9.90000000    5.50800000   16.81200000
 C                  9.67800000    6.45700000   19.70500000
 O                  9.08200000    5.19900000   20.05400000
 H                  8.37400000    4.80300000   19.47000000
 C                 11.93900000    9.84200000   18.98100000
 O                 12.59300000   10.54600000   17.91500000
 H                 12.21900000   10.28900000   17.02400000
 C                 11.76700000    8.34100000   19.14900000
 O                 11.12100000    8.22700000   20.42600000
 C                 10.62400000    6.93300000   20.79600000
 O                 10.05100000    7.43600000   22.01100000
 H                 10.75291762    7.68650997   22.61610859
 H                 11.41959813    6.24172871   20.98057419
 H                  8.89578459    7.17981991   19.60218735
 H                 11.21322606    5.65197247   18.42054664
 H                 10.05957717    8.38063641   17.93507579
 H                 12.72387638    7.86302470   19.17776133
 H                 12.42773054   10.16982716   19.87462845
 H                 10.94765705   10.24322184   19.01506166
 H                  9.88754580    8.26178917   15.76857125
 H                 12.50463924    8.81788758   14.37249862
 H                  9.69702352    9.21842477   13.49592003
 H                 10.19818861    7.77023822   10.78814903
 H                 11.67410066    7.31286040   12.31249046
 H                  9.31985413    7.07401880   14.10651943
 H                 10.78735308    4.73717791   13.14031019
 H                  9.24055802    5.26182875   12.59855982

 1 2 1.0 41 1.0
 2 3 1.0 12 1.0 42 1.0
 3 4 1.0 6 1.0 40 1.0
 4 5 1.0
 5
 6 7 1.0 14 1.0 39 1.0
 7 8 1.0
 8
 9 10 1.0 12 1.0 44 1.0 45 1.0
 10 11 1.0
 11
 12 13 1.0 43 1.0
 13 14 1.0
 14 15 1.0 38 1.0
 15 16 1.0
 16 17 1.0 26 1.0 34 1.0
 17 18 1.0 20 1.0 33 1.0
 18 19 1.0
 19
 20 21 1.0 28 1.0 32 1.0
 21 22 1.0
 22
 23 24 1.0 26 1.0 36 1.0 37 1.0
 24 25 1.0
 25
 26 27 1.0 35 1.0
 27 28 1.0
 28 29 1.0 31 1.0
 29 30 1.0
 30
 31
 32
 33
 34
 35
 36
 37
 38
 39
 40
 41
 42
 43
 44
 45

