# freq=raman b3lyp/6-31+g(2d,p) geom=connectivity

300 8359/8359.com

0 1
O           7.68500         7.45400        12.35000
C           8.34100         7.85200        13.56300
C           7.76500         9.14400        14.12000
O           7.93200        10.22900        13.19700
H           7.78100         9.93300        12.25400
C           8.21000         9.62400        15.49200
O           7.61600        10.85300        15.93400
H           8.06300        11.08700        16.79800
C           8.48600         5.47800        14.42600
O           7.94200         4.71200        13.34200
H           8.18800         3.75200        13.47500
C           7.97500         6.88700        14.67900
O           8.53200         7.34700        15.91900
C           7.92200         8.51400        16.48900
O           8.71500         8.71700        17.66700
C           8.15500         8.33200        18.93100
C           8.51500         6.89600        19.27400
O           8.04700         5.91300        18.34000
H           8.47500         6.15400        17.46900
C           7.99800         6.66900        20.68500
O           8.30300         5.39500        21.27300
H           7.93900         5.31600        22.20100
C           8.21200        10.76800        19.75500
O           8.39700        11.32100        18.44400
H           8.66400        12.28100        18.52200
C           8.63700         9.32600        19.97600
O           8.11600         9.05400        21.28500
C           8.46700         7.72000        21.67800
O           7.81500         7.61400        22.95200

