# freq=raman b3lyp/6-31+g(2d,p) geom=connectivity

300 8359/8359.com

0 1
 O                  7.68500000    7.45400000   12.35000000
 C                  8.34100000    7.85200000   13.56300000
 C                  7.76500000    9.14400000   14.12000000
 O                  7.93200000   10.22900000   13.19700000
 H                  7.78100000    9.93300000   12.25400000
 C                  8.21000000    9.62400000   15.49200000
 O                  7.61600000   10.85300000   15.93400000
 H                  8.06300000   11.08700000   16.79800000
 C                  8.48600000    5.47800000   14.42600000
 O                  7.94200000    4.71200000   13.34200000
 H                  8.18800000    3.75200000   13.47500000
 C                  7.97500000    6.88700000   14.67900000
 O                  8.53200000    7.34700000   15.91900000
 C                  7.92200000    8.51400000   16.48900000
 O                  8.71500000    8.71700000   17.66700000
 C                  8.15500000    8.33200000   18.93100000
 C                  8.51500000    6.89600000   19.27400000
 O                  8.04700000    5.91300000   18.34000000
 H                  8.47500000    6.15400000   17.46900000
 C                  7.99800000    6.66900000   20.68500000
 O                  8.30300000    5.39500000   21.27300000
 H                  7.93900000    5.31600000   22.20100000
 C                  8.21200000   10.76800000   19.75500000
 O                  8.39700000   11.32100000   18.44400000
 H                  8.66400000   12.28100000   18.52200000
 C                  8.63700000    9.32600000   19.97600000
 O                  8.11600000    9.05400000   21.28500000
 C                  8.46700000    7.72000000   21.67800000
 O                  7.81500000    7.61400000   22.95200000
 H                  8.34377821    7.23630103   11.68651041
 H                  8.32785950    4.91649819   15.32299906
 H                  9.54216304    5.54621126   14.26862513
 H                  6.90939673    6.85534701   14.77058468
 H                  9.40136996    7.91832745   13.43605033
 H                  6.71053627    8.97972203   14.19758219
 H                  9.26970100    9.76837334   15.45898273
 H                  6.88002824    8.38513570   16.69537067
 H                  8.47590142    7.55626704   23.64588487
 H                  8.75564851   11.37784730   20.44596496
 H                  7.17229508   10.84232297   19.99663976
 H                  9.70547822    9.28626928   20.01693607
 H                  7.08956761    8.40431277   18.86373422
 H                  9.58240582    6.82794873   19.30422969
 H                  6.93152539    6.74050052   20.63581075
 H                  9.52673786    7.64842604   21.80735543

 1 2 1.0 30 1.0
 2 3 1.0 12 1.0 34 1.0
 3 4 1.0 6 1.0 35 1.0
 4 5 1.0
 5
 6 7 1.0 14 1.0 36 1.0
 7 8 1.0
 8
 9 10 1.0 12 1.0 31 1.0 32 1.0
 10 11 1.0
 11
 12 13 1.0 33 1.0
 13 14 1.0
 14 15 1.0 37 1.0
 15 16 1.0
 16 17 1.0 26 1.0 42 1.0
 17 18 1.0 20 1.0 43 1.0
 18 19 1.0
 19
 20 21 1.0 28 1.0 44 1.0
 21 22 1.0
 22
 23 24 1.0 26 1.0 39 1.0 40 1.0
 24 25 1.0
 25
 26 27 1.0 41 1.0
 27 28 1.0
 28 29 1.0 45 1.0
 29 38 1.0
 30
 31
 32
 33
 34
 35
 36
 37
 38
 39
 40
 41
 42
 43
 44
 45

