# freq=raman b3lyp/6-31+g(2d,p) geom=connectivity

550 5555/5555.com

0 1
O           9.34100         7.34400        11.47400
C          10.11700         7.39100        12.68100
C          10.26300         8.81300        13.19700
O          11.19700         9.45000        12.31300
H          10.84200         9.18100        11.41800
C          10.97100         8.78000        14.54200
O          10.99300        10.04500        15.21800
H          11.36400        10.77700        14.64600
C           9.23500         5.06400        12.90700
O           8.47200         3.93200        13.34800
H           8.83700         3.02700        13.13000
C           9.43400         6.39800        13.60800
O          10.08400         6.39500        14.88700
C          10.21700         7.74400        15.35900
O          11.07200         7.41500        16.46400
C          10.48000         7.54300        17.76500
C          10.19500         6.12200        18.22300
O           9.36400         5.38500        17.31500
H           9.60200         5.73200        16.40800
C           9.74000         6.02800        19.67000
O           9.54500         4.71800        20.22200
H           9.65200         3.92800        19.61900
C          11.90400         9.54900        18.32700
O          11.34600        10.86600        18.21200
H          10.78400        10.88600        17.38500
C          11.33500         8.22800        18.81900
O          10.69900         8.22000        20.10600
C          10.51500         6.90200        20.64200
O           9.89500         6.95800        21.93500

