# freq=raman b3lyp/6-31+g(2d,p) geom=connectivity

550 5555/5555.com

0 1
 O                  9.34100000    7.34400000   11.47400000
 C                 10.11700000    7.39100000   12.68100000
 C                 10.26300000    8.81300000   13.19700000
 O                 11.19700000    9.45000000   12.31300000
 H                 10.84200000    9.18100000   11.41800000
 C                 10.97100000    8.78000000   14.54200000
 O                 10.99300000   10.04500000   15.21800000
 H                 11.36400000   10.77700000   14.64600000
 C                  9.23500000    5.06400000   12.90700000
 O                  8.47200000    3.93200000   13.34800000
 H                  8.83700000    3.02700000   13.13000000
 C                  9.43400000    6.39800000   13.60800000
 O                 10.08400000    6.39500000   14.88700000
 C                 10.21700000    7.74400000   15.35900000
 O                 11.07200000    7.41500000   16.46400000
 C                 10.48000000    7.54300000   17.76500000
 C                 10.19500000    6.12200000   18.22300000
 O                  9.36400000    5.38500000   17.31500000
 H                  9.60200000    5.73200000   16.40800000
 C                  9.74000000    6.02800000   19.67000000
 O                  9.54500000    4.71800000   20.22200000
 H                  9.65200000    3.92800000   19.61900000
 C                 11.90400000    9.54900000   18.32700000
 O                 11.34600000   10.86600000   18.21200000
 H                 10.78400000   10.88600000   17.38500000
 C                 11.33500000    8.22800000   18.81900000
 O                 10.69900000    8.22000000   20.10600000
 C                 10.51500000    6.90200000   20.64200000
 O                  9.89500000    6.95800000   21.93500000
 H                 10.57301344    6.98740732   22.61399409
 H                 11.48384538    6.46541814   20.76703961
 H                  8.75853294    6.45399221   19.65762833
 H                 11.14292105    5.62634744   18.19703419
 H                  9.55384394    8.07103488   17.67381821
 H                 12.18868595    7.59358168   18.93576338
 H                 12.25322656    9.32876492   17.33986408
 H                 12.78143820    9.69077884   18.92273565
 H                  8.82661318    5.31466474   11.95029346
 H                 10.22356673    4.68522658   12.75154417
 H                  8.45119521    6.78337938   13.78257803
 H                  9.92953501    7.31448920   10.71613744
 H                 11.09592563    7.01896354   12.46146986
 H                  9.32744000    9.33042886   13.24052999
 H                 11.97703972    8.44535059   14.39779929
 H                  9.27976596    8.12716609   15.70494235

 1 2 1.0 41 1.0
 2 3 1.0 12 1.0 42 1.0
 3 4 1.0 6 1.0 43 1.0
 4 5 1.0
 5
 6 7 1.0 14 1.0 44 1.0
 7 8 1.0
 8
 9 10 1.0 12 1.0 38 1.0 39 1.0
 10 11 1.0
 11
 12 13 1.0 40 1.0
 13 14 1.0
 14 15 1.0 45 1.0
 15 16 1.0
 16 17 1.0 26 1.0 34 1.0
 17 18 1.0 20 1.0 33 1.0
 18 19 1.0
 19
 20 21 1.0 28 1.0 32 1.0
 21 22 1.0
 22
 23 24 1.0 26 1.0 36 1.0 37 1.0
 24 25 1.0
 25
 26 27 1.0 35 1.0
 27 28 1.0
 28 29 1.0 31 1.0
 29 30 1.0
 30
 31
 32
 33
 34
 35
 36
 37
 38
 39
 40
 41
 42
 43
 44
 45

