# freq=raman b3lyp/6-31+g(d,p) geom=connectivity

450 5000.com

0 1
 O                  9.38300000    7.63400000   21.62700000
 C                 10.11100000    7.75300000   22.85700000
 C                 10.37800000    9.17600000   23.31800000
 O                 11.38200000    9.69900000   22.43600000
 H                 10.94000000    9.65200000   21.54000000
 C                 10.87000000    9.34700000   24.74600000
 O                 10.40400000   10.63400000   25.17700000
 H                 10.76500000   11.44100000   24.71000000
 C                  9.55300000    5.46200000   23.70800000
 O                  8.94900000    4.51700000   24.60500000
 H                  8.86200000    3.67600000   24.07100000
 C                  9.55900000    6.94900000   24.02300000
 O                 10.42800000    6.93200000   25.16500000
 C                 10.40500000    8.26200000   25.70400000
 O                 11.08800000    8.35200000   26.96300000
 C                 10.37700000    8.23500000   28.20400000
 C                 10.08600000    6.79200000   28.58400000
 O                  9.34700000    6.07100000   27.58700000
 H                  9.67300000    6.21000000   26.65200000
 C                  9.68700000    6.50100000   30.02100000
 O                  9.35000000    5.13100000   30.28700000
 H                  8.69500000    4.99200000   29.54500000
 C                 11.66800000   10.11400000   29.03400000
 O                 12.58100000   10.88700000   29.82500000
 H                 13.53600000   10.61400000   29.70700000
 C                 11.30100000    8.66900000   29.33000000
 O                 10.80200000    8.60300000   30.67300000
 C                 10.58000000    7.22700000   31.01400000
 O                  9.92300000    7.11500000   32.28600000
 H                 10.58141132    7.05372182   32.98194505
 H                 10.00040493    7.56320853   20.89528986
 H                 10.57357878    5.16553778   23.58378608
 H                  9.06905777    5.34595150   22.76077634
 H                  8.57975873    7.28496847   24.29339179
 H                 11.07434281    7.33421924   22.65330094
 H                  9.48215376    9.74811106   23.19532789
 H                 11.93992553    9.35690688   24.73817577
 H                  9.37706564    8.47526620   25.91080542
 H                 10.74771093   10.65969646   29.02045736
 H                 12.05241475   10.12656947   28.03551750
 H                 12.19156344    8.07828430   29.27659849
 H                  9.48118105    8.82008786   28.19502195
 H                 11.05478543    6.34172024   28.52397553
 H                  8.74819271    7.00380859   30.12455864
 H                 11.52370201    6.72521848   31.06441652

 1 2 1.0 31 1.0
 2 3 1.0 12 1.0 35 1.0
 3 4 1.0 6 1.0 36 1.0
 4 5 1.0
 5
 6 7 1.0 14 1.0 37 1.0
 7 8 1.0
 8
 9 10 1.0 12 1.0 32 1.0 33 1.0
 10 11 1.0
 11
 12 13 1.0 34 1.0
 13 14 1.0
 14 15 1.0 38 1.0
 15 16 1.0
 16 17 1.0 26 1.0 42 1.0
 17 18 1.0 20 1.0 43 1.0
 18 19 1.0
 19
 20 21 1.0 28 1.0 44 1.0
 21 22 1.0
 22
 23 24 1.0 26 1.0 39 1.0 40 1.0
 24 25 1.0
 25
 26 27 1.0 41 1.0
 27 28 1.0
 28 29 1.0 45 1.0
 29 30 1.0
 30
 31
 32
 33
 34
 35
 36
 37
 38
 39
 40
 41
 42
 43
 44
 45

