## freq=raman b3lyp/6-31+g(d,p)

450K 10000ps Cellobiose Unit 1

0 1
 O(PDBName=O1,ResName=GLC,ResNum=6)                   10.49700000    7.94000000   32.16700000
 C(PDBName=C4,ResName=GLC,ResNum=7)                   11.33200000    7.74200000   33.31700000
 C(PDBName=C3,ResName=GLC,ResNum=7)                   11.90500000    9.13100000   33.54200000
 O(PDBName=O3,ResName=GLC,ResNum=7)                   13.06800000    9.30600000   32.72000000
 H(PDBName=HO3,ResName=GLC,ResNum=7)                  12.78300000    9.43100000   31.77000000
 C(PDBName=C2,ResName=GLC,ResNum=7)                   12.42300000    9.27500000   34.96400000
 O(PDBName=O2,ResName=GLC,ResNum=7)                   12.16500000   10.65500000   35.25800000
 H(PDBName=HO2,ResName=GLC,ResNum=7)                  12.76500000   11.30800000   34.79500000
 C(PDBName=C6,ResName=GLC,ResNum=7)                   10.20200000    5.83300000   34.23700000
 O(PDBName=O6,ResName=GLC,ResNum=7)                    9.70500000    4.90400000   35.21100000
 H(PDBName=HO6,ResName=GLC,ResNum=7)                   9.78900000    3.98000000   34.83600000
 C(PDBName=C5,ResName=GLC,ResNum=7)                   10.49300000    7.30000000   34.50500000
 O(PDBName=O5,ResName=GLC,ResNum=7)                   11.28000000    7.26300000   35.70400000
 C(PDBName=C1,ResName=GLC,ResNum=7)                   11.59900000    8.61600000   36.05800000
 O(PDBName=O1,ResName=GLC,ResNum=7)                   12.09700000    8.32900000   37.37300000
 C(PDBName=C4,ResName=GLC,ResNum=8)                   11.40500000    8.31900000   38.63000000
 C(PDBName=C3,ResName=GLC,ResNum=8)                   10.93300000    6.98500000   39.18500000
 O(PDBName=O3,ResName=GLC,ResNum=8)                   10.43700000    6.18600000   38.10100000
 H(PDBName=HO3,ResName=GLC,ResNum=8)                  10.91700000    6.46000000   37.26800000
 C(PDBName=C2,ResName=GLC,ResNum=8)                   10.06000000    7.17900000   40.41400000
 O(PDBName=O2,ResName=GLC,ResNum=8)                    9.07700000    6.21900000   40.82700000
 H(PDBName=HO2,ResName=GLC,ResNum=8)                   8.27800000    6.14000000   40.23000000
 C(PDBName=C6,ResName=GLC,ResNum=8)                   12.51800000   10.22800000   39.34400000
 O(PDBName=O6,ResName=GLC,ResNum=8)                   13.31500000   11.07900000   40.18000000
 H(PDBName=HO6,ResName=GLC,ResNum=8)                  14.22300000   10.75700000   40.45000000
 C(PDBName=C5,ResName=GLC,ResNum=8)                   12.30500000    8.78300000   39.76400000
 O(PDBName=O5,ResName=GLC,ResNum=8)                   11.68100000    8.82900000   41.05500000
 C(PDBName=C1,ResName=GLC,ResNum=8)                   11.02700000    7.63000000   41.49700000
 O(PDBName=O1,ResName=GLC,ResNum=8)                   10.46000000    7.95400000   42.77400000
 H                                                    11.16487041    8.11427939   43.40571847
 H                                                    11.04684864    8.07352501   31.39147595

