# freq=raman b3lyp/6-31+g(d,p) geom=connectivity

500 10000.com

0 1
 O                  8.42000000    6.31100000   22.91600000
 C                  9.28200000    6.37000000   24.06200000
 C                  8.98200000    7.74400000   24.63900000
 O                  9.33100000    8.75600000   23.68400000
 H                  9.02700000    8.67200000   22.73500000
 C                  9.60200000    8.00900000   26.00100000
 O                  9.01100000    9.19200000   26.55800000
 H                  9.18400000    9.98400000   25.97300000
 C                  9.18200000    3.85900000   24.42800000
 O                  8.75600000    2.75800000   25.24400000
 H                  8.80100000    1.84900000   24.83200000
 C                  8.89800000    5.23800000   25.00100000
 O                  9.57000000    5.50500000   26.24000000
 C                  9.38700000    6.78100000   26.87100000
 O                 10.37900000    6.65100000   27.89900000
 C                  9.94400000    6.51000000   29.25900000
 C                  9.81700000    5.04300000   29.63600000
 O                  9.37200000    4.13300000   28.62000000
 H                  9.54300000    4.50100000   27.70700000
 C                  9.02600000    4.74300000   30.89900000
 O                  9.25100000    3.33300000   31.05000000
 H                  9.02100000    2.86700000   30.19600000
 C                 10.41700000    8.73000000   30.13900000
 O                 11.13200000    9.72300000   30.88800000
 H                 10.70900000   10.59400000   30.63900000
 C                 10.57000000    7.24700000   30.43200000
 O                  9.92900000    6.94400000   31.67900000
 C                  9.68500000    5.56600000   31.99400000
 O                  8.90500000    5.60100000   33.19800000
 H                  9.49077943    5.62310018   33.95824604
 H                 10.62538725    5.11000121   32.22342739
 H                  7.98808078    4.97649491   30.78452810
 H                 10.81798746    4.73734637   29.85848586
 H                  8.93725587    6.87193560   29.23979402
 H                 11.60932536    7.00062732   30.49527163
 H                  9.37632833    8.95878512   30.23677447
 H                 10.67811337    8.87065257   29.11092575
 H                  8.95147070    6.26989542   22.11759577
 H                 10.23683223    3.77173921   24.27110984
 H                  8.69256702    3.78260274   23.47957034
 H                  7.84508938    5.30427073   25.17957048
 H                 10.30856112    6.29429839   23.76986729
 H                  7.92142683    7.79665208   24.77057625
 H                 10.65292621    8.16948992   25.87976844
 H                  8.41477964    6.82366827   27.31582243

 1 2 1.0 38 1.0
 2 3 1.0 12 1.0 42 1.0
 3 4 1.0 6 1.0 43 1.0
 4 5 1.0
 5
 6 7 1.0 14 1.0 44 1.0
 7 8 1.0
 8
 9 10 1.0 12 1.0 39 1.0 40 1.0
 10 11 1.0
 11
 12 13 1.0 41 1.0
 13 14 1.0
 14 15 1.0 45 1.0
 15 16 1.0
 16 17 1.0 26 1.0 34 1.0
 17 18 1.0 20 1.0 33 1.0
 18 19 1.0
 19
 20 21 1.0 28 1.0 32 1.0
 21 22 1.0
 22
 23 24 1.0 26 1.0 36 1.0 37 1.0
 24 25 1.0
 25
 26 27 1.0 35 1.0
 27 28 1.0
 28 29 1.0 31 1.0
 29 30 1.0
 30
 31
 32
 33
 34
 35
 36
 37
 38
 39
 40
 41
 42
 43
 44
 45

