# freq=raman b3lyp/6-31+g(d,p) geom=connectivity

300 10000.com

0 1
O           7.43300         7.79300        12.36600
C           8.02100         8.00500        13.65800
C           7.58200         9.40800        14.04600
O           8.09400        10.43100        13.18000
H           8.17200        10.09700        12.24100
C           8.04300         9.73300        15.45800
O           7.42700        10.91800        15.98200
H           7.89200        11.13000        16.84200
C           8.15500         5.61100        14.34300
O           7.65400         4.78600        13.28100
H           8.10500         3.90900        13.44200
C           7.56600         6.97200        14.67600
O           8.05400         7.23900        15.99800
C           7.76000         8.58200        16.40900
O           8.63900         8.67500        17.54000
C           8.05600         8.33600        18.80600
C           8.55600         7.01500        19.37000
O           8.58100         5.92500        18.43700
H           8.83100         6.36000        17.57200
C           7.98900         6.60100        20.71800
O           8.34800         5.41800        21.44500
H           7.82400         5.48700        22.29400
C           7.82900        10.73500        19.62800
O           8.27000        11.56800        18.54600
H           8.42300        12.48600        18.91400
C           8.37400         9.34200        19.90000
O           7.56300         9.00700        21.03600
C           8.08500         7.81100        21.63300
O           7.26300         7.61900        22.79400

