# freq=raman b3lyp/6-31+g(d,p) geom=connectivity

300 5000.com

0 1
O           7.80300         7.59500        12.01500
C           8.24700         7.89900        13.34600
C           7.80100         9.26200        13.84800
O           8.04300        10.30600        12.89400
H           7.65700         9.86500        12.08400
C           8.33300         9.61100        15.22900
O           7.53100        10.66800        15.77700
H           7.73900        10.89400        16.72900
C           8.48400         5.49300        14.16000
O           8.13100         4.78300        12.96400
H           7.98000         3.80300        13.09600
C           7.84800         6.85600        14.37700
O           8.30200         7.14900        15.70700
C           7.91400         8.46300        16.13400
O           8.78400         8.61400        17.26500
C           8.23700         8.32800        18.56000
C           8.79000         7.03800        19.14400
O           8.57200         5.97400        18.20700
H           8.86300         6.37200        17.33700
C           8.12200         6.69700        20.46600
O           8.74300         5.50100        20.95700
H           8.29300         5.40800        21.84500
C           8.09100        10.84500        19.11200
O           8.75100        11.53600        18.04100
H           8.62900        12.48200        18.34000
C           8.50200         9.44900        19.55200
O           7.86300         9.13500        20.79800
C           8.42400         7.92000        21.31700
O           7.70300         7.59000        22.51300

