# freq=raman b3lyp/6-31+g(d,p) geom=connectivity

300 6000.com

0 1
O           7.72300         7.54800        12.04200
C           8.19000         7.92700        13.34500
C           7.73200         9.27800        13.87000
O           7.92700        10.31200        12.89400
H           7.79400         9.99900        11.95400
C           8.36100         9.66900        15.19700
O           7.81700        10.80200        15.88900
H           8.36900        10.96900        16.70700
C           8.41500         5.50400        14.12500
O           8.11500         4.76000        12.93600
H           8.15000         3.78800        13.16800
C           7.90900         6.90400        14.43300
O           8.59000         7.30700        15.63100
C           8.14900         8.54800        16.20100
O           8.97900         8.63200        17.36800
C           8.38200         8.34400        18.64100
C           8.98300         7.01300        19.06500
O           8.63700         5.88900        18.24300
H           8.81600         6.13300        17.29000
C           8.52700         6.63400        20.46500
O           9.12600         5.49900        21.10700
H           8.57800         5.26600        21.91100
C           8.22500        10.80100        19.44500
O           8.70700        11.50300        18.29000
H           8.36900        12.43900        18.39200
C           8.66800         9.37400        19.72100
O           8.10200         8.93900        20.96600
C           8.65000         7.73000        21.51000
O           7.66700         7.63500        22.55100

