# freq=raman b3lyp/6-31+g(d,p) geom=connectivity

300 8000.com

0 1
O           7.81200         7.90300        12.43200
C           8.19600         8.19600        13.78400
C           7.65400         9.51000        14.32200
O           8.13700        10.56500        13.47700
H           7.86100        10.32200        12.54700
C           8.06800         9.80200        15.75400
O           7.41200        10.94300        16.32500
H           7.93900        11.19500        17.13700
C           8.36000         5.72200        14.54800
O           8.09200         4.96700        13.35800
H           8.25200         3.99600        13.53500
C           7.82100         7.12200        14.79200
O           8.34100         7.45200        16.08900
C           7.84500         8.64400        16.71400
O           8.64200         8.78500        17.89900
C           8.08700         8.38800        19.16200
C           8.71600         7.06700        19.57500
O           8.54300         6.11900        18.51300
H           8.65300         6.66400        17.68200
C           8.19600         6.63000        20.93500
O           8.69100         5.39200        21.46500
H           8.53500         5.19500        22.43300
C           7.98800        10.87900        19.94000
O           8.32700        11.62300        18.76000
H           8.44400        12.60100        18.93100
C           8.47900         9.45900        20.16700
O           8.05500         9.04700        21.47500
C           8.39900         7.73900        21.95500
O           7.58500         7.50100        23.11300

