# freq=raman b3lyp/6-31+g(d,p) geom=connectivity

300 9000.com

0 1
O           7.66700         7.71600        12.36700
C           8.42700         7.97300        13.55700
C           8.10300         9.37100        14.05600
O           8.29300        10.42200        13.09800
H           7.92700        10.17300        12.20100
C           8.65000         9.73500        15.42700
O           7.99000        10.91200        15.91500
H           8.32700        11.01900        16.85100
C           8.37000         5.54300        14.34200
O           7.73200         4.85000        13.26000
H           7.57200         3.89100        13.49400
C           8.04500         6.99500        14.65500
O           8.62500         7.34200        15.92100
C           8.20800         8.63600        16.38000
O           8.96200         8.92800        17.56500
C           8.35900         8.59000        18.82200
C           8.94700         7.32800        19.43100
O           8.92800         6.21700        18.52400
H           9.11800         6.67000        17.65300
C           8.33500         6.83500        20.73200
O           9.07500         5.75900        21.32700
H           8.67300         5.54700        22.21700
C           8.25900        11.06400        19.44100
O           8.89000        11.73300        18.34000
H           8.62500        12.69500        18.41400
C           8.62700         9.65400        19.87400
O           7.88400         9.16400        21.00000
C           8.35900         8.00600        21.70100
O           7.56900         7.70600        22.86100

