# freq=raman b3lyp/6-31+g(2df,p) geom=connectivity

400 9000.com

0 1
 O                 10.07700000    7.25800000   11.79200000
 C                 10.55800000    7.54600000   13.11300000
 C                 10.27800000    8.97900000   13.53700000
 O                 11.09700000    9.91600000   12.82300000
 H                 11.21500000    9.53000000   11.90800000
 C                 10.56900000    9.28600000   14.99700000
 O                 10.10700000   10.57800000   15.41500000
 H                 10.40800000   10.57200000   16.36900000
 C                 10.16300000    5.17600000   13.91400000
 O                  9.96600000    4.54400000   12.64100000
 H                  9.76500000    3.57700000   12.79400000
 C                  9.91800000    6.65500000   14.16500000
 O                 10.34000000    6.90900000   15.51300000
 C                  9.99300000    8.23700000   15.93300000
 O                 10.85100000    8.32200000   17.08100000
 C                 10.38500000    8.22300000   18.43400000
 C                 10.73800000    6.80600000   18.85700000
 O                 10.57600000    5.70700000   17.94900000
 H                 10.67200000    6.00400000   16.99900000
 C                 10.09100000    6.55000000   20.20900000
 O                 10.52100000    5.29600000   20.75800000
 H                 10.02700000    5.06800000   21.59700000
 C                 10.66500000   10.67100000   19.04400000
 O                 10.89700000   11.30100000   17.77600000
 H                 10.97600000   12.29700000   17.81700000
 C                 11.00000000    9.23000000   19.39200000
 O                 10.43800000    8.99100000   20.69100000
 C                 10.47800000    7.64500000   21.18900000
 O                  9.76200000    7.75000000   22.42800000
 H                 10.38667357    7.81155564   23.15435655
 H                 11.49762935    7.45212106   21.44987105
 H                  9.02720582    6.53877992   20.09447466
 H                 11.78952780    6.83657964   19.05258674
 H                  9.32105876    8.33611362   18.44559087
 H                 12.06159712    9.10036892   19.42527660
 H                 11.17681668   11.27203368   19.76628955
 H                  9.61858110   10.78214656   19.23778834
 H                 10.82248181    7.12915672   11.20102091
 H                  9.54793418    4.64647980   14.61128215
 H                 11.17993789    4.98850358   14.18892256
 H                  8.86149819    6.81894864   14.12228276
 H                 11.61595065    7.38683623   13.13053041
 H                  9.25004919    9.19970911   13.33824232
 H                 11.63204149    9.27299588   15.11813502
 H                  8.95621505    8.36849068   16.16253687

 1 2 1.0 38 1.0
 2 3 1.0 12 1.0 42 1.0
 3 4 1.0 6 1.0 43 1.0
 4 5 1.0
 5
 6 7 1.0 14 1.0 44 1.0
 7 8 1.0
 8
 9 10 1.0 12 1.0 39 1.0 40 1.0
 10 11 1.0
 11
 12 13 1.0 41 1.0
 13 14 1.0
 14 15 1.0 45 1.0
 15 16 1.0
 16 17 1.0 26 1.0 34 1.0
 17 18 1.0 20 1.0 33 1.0
 18 19 1.0
 19
 20 21 1.0 28 1.0 32 1.0
 21 22 1.0
 22
 23 24 1.0 26 1.0 36 1.0 37 1.0
 24 25 1.0
 25
 26 27 1.0 35 1.0
 27 28 1.0
 28 29 1.0 31 1.0
 29 30 1.0
 30
 31
 32
 33
 34
 35
 36
 37
 38
 39
 40
 41
 42
 43
 44
 45

