# freq=raman b3lyp/6-31+g(2d,p) geom=connectivity

493 7352/7352.com

0 1
O           7.62400         7.44100        12.31500
C           7.97500         7.77800        13.66500
C           7.35200         9.09600        14.09600
O           7.47700        10.09100        13.06900
H           7.39700         9.56600        12.22100
C           8.03800         9.42700        15.41100
O           7.77200        10.74100        15.92300
H           8.13400        10.79500        16.85400
C           8.19000         5.34600        14.34700
O           7.84200         4.57400        13.18900
H           7.89600         3.62400        13.49900
C           7.65900         6.72300        14.71300
O           8.25400         7.14000        15.95100
C           7.71100         8.36900        16.45300
O           8.52500         8.54500        17.62200
C           7.90600         8.08500        18.83200
C           8.55400         6.78600        19.28400
O           8.20400         5.73700        18.37000
H           8.55400         6.14200        17.52500
C           8.06700         6.40700        20.67300
O           8.90300         5.37800        21.22200
H           8.60300         4.99100        22.09500
C           7.76500        10.55100        19.72300
O           8.17300        11.32000        18.58200
H           8.17100        12.30000        18.77800
C           8.20600         9.10900        19.91400
O           7.66800         8.81000        21.21000
C           8.23400         7.56500        21.64400
O           7.49500         7.41300        22.86400

