# freq=raman b3lyp/6-31+g(2d,p) geom=connectivity

493 7352/7352.com

0 1
 O                  7.62400000    7.44100000   12.31500000
 C                  7.97500000    7.77800000   13.66500000
 C                  7.35200000    9.09600000   14.09600000
 O                  7.47700000   10.09100000   13.06900000
 H                  7.39700000    9.56600000   12.22100000
 C                  8.03800000    9.42700000   15.41100000
 O                  7.77200000   10.74100000   15.92300000
 H                  8.13400000   10.79500000   16.85400000
 C                  8.19000000    5.34600000   14.34700000
 O                  7.84200000    4.57400000   13.18900000
 H                  7.89600000    3.62400000   13.49900000
 C                  7.65900000    6.72300000   14.71300000
 O                  8.25400000    7.14000000   15.95100000
 C                  7.71100000    8.36900000   16.45300000
 O                  8.52500000    8.54500000   17.62200000
 C                  7.90600000    8.08500000   18.83200000
 C                  8.55400000    6.78600000   19.28400000
 O                  8.20400000    5.73700000   18.37000000
 H                  8.55400000    6.14200000   17.52500000
 C                  8.06700000    6.40700000   20.67300000
 O                  8.90300000    5.37800000   21.22200000
 H                  8.60300000    4.99100000   22.09500000
 C                  7.76500000   10.55100000   19.72300000
 O                  8.17300000   11.32000000   18.58200000
 H                  8.17100000   12.30000000   18.77800000
 C                  8.20600000    9.10900000   19.91400000
 O                  7.66800000    8.81000000   21.21000000
 C                  8.23400000    7.56500000   21.64400000
 O                  7.49500000    7.41300000   22.86400000
 H                  8.10588209    7.32144190   23.59887426
 H                  9.27166547    7.70052072   21.86712441
 H                  7.04674654    6.08608042   20.64148022
 H                  9.61726043    6.90490164   19.29948073
 H                  6.85098118    7.96297395   18.70182729
 H                  9.27065050    9.12723829   20.01929327
 H                  8.08657397   11.08979425   20.58971272
 H                  6.69501399   10.55013540   19.72840323
 H                  8.42333338    7.31223246   11.79916565
 H                  9.25465232    5.44791660   14.31493050
 H                  7.96871868    4.72040544   15.18638431
 H                  6.59803264    6.66444525   14.83877598
 H                  9.03578324    7.91739959   13.67937579
 H                  6.31149950    8.93495024   14.28658252
 H                  9.09154321    9.37284579   15.23207538
 H                  6.66652028    8.30132335   16.67522057

 1 2 1.0 38 1.0
 2 3 1.0 12 1.0 42 1.0
 3 4 1.0 6 1.0 43 1.0
 4 5 1.0
 5
 6 7 1.0 14 1.0 44 1.0
 7 8 1.0
 8
 9 10 1.0 12 1.0 39 1.0 40 1.0
 10 11 1.0
 11
 12 13 1.0 41 1.0
 13 14 1.0
 14 15 1.0 45 1.0
 15 16 1.0
 16 17 1.0 26 1.0 34 1.0
 17 18 1.0 20 1.0 33 1.0
 18 19 1.0
 19
 20 21 1.0 28 1.0 32 1.0
 21 22 1.0
 22
 23 24 1.0 26 1.0 36 1.0 37 1.0
 24 25 1.0
 25
 26 27 1.0 35 1.0
 27 28 1.0
 28 29 1.0 31 1.0
 29 30 1.0
 30
 31
 32
 33
 34
 35
 36
 37
 38
 39
 40
 41
 42
 43
 44
 45

