# freq=raman b3lyp/6-31+g(2d,p) geom=connectivity
450 6000.com
450 6000.com
C          11.02900         7.67500         2.33000
0 1
O          12.89500         9.32100        22.97400
H          12.57800         9.34700        22.02600
C          12.10400         9.14100        25.26800
O          11.83600        10.50400        25.62900
H          12.32700        11.28900        25.25300
C          10.12300         5.70300        24.05900
O           9.33500         4.70600        24.72500
H           9.32700         3.88200        24.15800
C          10.33000         7.16400        24.42500
O          11.09400         7.02100        25.63100
C          11.26200         8.31600        26.22700
O          11.95200         7.88400        27.40900
C          11.02400         8.09200        28.48300
C          10.30700         6.83300        28.94400
O           9.62300         6.06700        27.94200
H          10.02900         6.32700        27.06700
C           9.51600         7.00600        30.23000
O           8.84500         5.78900        30.58600
H           8.10000         5.67200        29.92900
C          12.34900        10.02200        29.53100
O          13.09400        10.81100        30.47000
H          13.96700        10.35800        30.64700
C          11.82800         8.60100        29.66900
O          11.02100         8.83600        30.83200
C          10.52400         7.55000        31.23000
O           9.78300         7.91700        32.40300
C          10.63100         7.84500        33.55800
C          10.87700         9.18000        34.24000
O          11.41200        10.22600        33.41600

