# freq=raman b3lyp/6-31+g(2d,p) geom=connectivity

320 5610/5610.com

0 1
O           7.93200         7.58500        12.39700
C           8.37000         7.96700        13.70900
C           7.63700         9.21200        14.17900
O           7.56600        10.21900        13.15900
H           7.43300         9.69600        12.31800
C           8.22300         9.75200        15.47400
O           7.59600        10.89200        16.07800
H           8.11300        11.09500        16.91000
C           8.60900         5.52400        14.45600
O           8.05000         4.87700        13.30300
H           8.04200         3.87700        13.31300
C           8.17000         6.93600        14.80800
O           8.84300         7.47000        15.95800
C           8.21600         8.63800        16.50700
O           9.00100         8.86600        17.68700
C           8.37400         8.51100        18.92800
C           8.80100         7.15000        19.45200
O           8.72900         6.10900        18.46600
H           8.99100         6.48300        17.57600
C           8.11100         6.72400        20.73800
O           8.60900         5.46600        21.21500
H           8.16500         5.28800        22.09300
C           8.23500        10.96700        19.73900
O           8.66000        11.67000        18.56200
H           8.43000        12.64300        18.55100
C           8.67400         9.53700        20.00800
O           8.00300         9.17700        21.22500
C           8.37400         7.87400        21.69700
O           7.68000         7.63900        22.93100

