# freq=raman b3lyp/6-31+g(d,p) geom=connectivity

280 10000.com

0 1
O           7.41700         7.60400        12.29800
C           7.96300         7.90800        13.59000
C           7.36000         9.23700        14.01500
O           7.48400        10.27800        13.03400
H           7.13100         9.92100        12.16900
C           7.76300         9.62600        15.42800
O           7.03500        10.72800        15.98800
H           7.46700        10.88100        16.87700
C           8.32200         5.48600        14.17200
O           7.59300         4.76800        13.16500
H           7.94000         3.83000        13.15300
C           7.70400         6.80600        14.60400
O           8.32000         7.18500        15.84400
C           7.69300         8.38900        16.30900
O           8.50400         8.56000        17.48000
C           7.90900         8.27200        18.75300
C           8.49700         6.95600        19.23600
O           8.33000         5.91100        18.26800
H           8.45100         6.22200        17.32500
C           8.04200         6.50200        20.61400
O           8.68100         5.32400        21.12700
H           8.34300         4.98400        22.00400
C           7.66400        10.61900        19.41600
O           8.11400        11.31600        18.24600
H           8.07100        12.30700        18.37300
C           8.16600         9.26000        19.87900
O           7.67700         8.88800        21.17600
C           8.27300         7.64800        21.58500
O           7.55300         7.51600        22.81900

