# freq=raman b3lyp/6-31+g(d,p) geom=connectivity

280 5000.com

0 1
O           7.63000         7.47000        12.17500
C           8.11200         7.74600        13.49800
C           7.67300         9.13900        13.92000
O           8.18700        10.17400        13.07000
H           8.16600         9.90700        12.10600
C           8.05400         9.50000        15.34600
O           7.52000        10.76800        15.75600
H           7.82500        10.95100        16.69100
C           8.42800         5.39800        14.34200
O           7.98400         4.64400        13.20500
H           8.24800         3.68500        13.30800
C           7.78900         6.75300        14.60200
O           8.19500         7.19000        15.90700
C           7.67300         8.44400        16.37100
O           8.53200         8.72900        17.48400
C           8.14100         8.34000        18.80900
C           8.92200         7.17300        19.39000
O           8.88100         5.98400        18.58700
H           8.89500         6.31000        17.64100
C           8.37500         6.73900        20.74100
O           9.14000         5.65500        21.28800
H           8.84000         5.38900        22.20400
C           7.84200        10.78700        19.41500
O           8.22200        11.46400        18.20800
H           7.90400        12.40200        18.34000
C           8.43000         9.44300        19.81300
O           7.80600         9.10300        21.06000
C           8.43400         7.95500        21.65000
O           7.57300         7.78500        22.78500

