# freq=raman b3lyp/6-31+g(d,p) geom=connectivity

280 8000.com

0 1
O           7.47500         7.57900        12.37700
C           8.12500         7.81900        13.63400
C           7.59200         9.16300        14.10200
O           8.27100        10.20700        13.38900
H           8.18300         9.83200        12.46600
C           7.80300         9.50700        15.56700
O           6.94900        10.57400        16.00700
H           7.25200        10.78600        16.93700
C           8.13600         5.44700        14.31000
O           7.57300         4.55600        13.33600
H           7.69300         3.63800        13.71600
C           7.50900         6.80400        14.58400
O           7.84900         7.10100        15.94600
C           7.36700         8.35300        16.45500
O           8.18700         8.46400        17.62700
C           7.64500         8.25300        18.93900
C           8.41500         7.00900        19.35300
O           8.15000         5.99000        18.37800
H           8.33400         6.44300        17.50600
C           8.10800         6.61300        20.78800
O           8.78400         5.43700        21.25600
H           8.54300         5.21300        22.20000
C           7.57400        10.66800        19.50400
O           8.02200        11.34400        18.32000
H           8.14200        12.32900        18.44400
C           8.16300         9.32000        19.88900
O           7.72400         8.94700        21.20300
C           8.36900         7.77800        21.72800
O           7.67600         7.60600        22.97300

