# freq=raman b3lyp/6-31+g(2df,p) geom=connectivity

310 8000.com

0 1
 O                  8.11600000    7.61900000   12.35900000
 C                  8.60200000    7.96000000   13.66500000
 C                  8.15500000    9.36300000   14.04200000
 O                  8.38400000   10.32800000   13.00400000
 H                  8.55100000    9.84200000   12.14600000
 C                  8.55700000    9.74700000   15.45700000
 O                  7.83500000   10.92000000   15.85800000
 H                  8.15600000   11.28300000   16.73300000
 C                  8.30400000    5.52600000   14.45100000
 O                  7.69600000    4.90900000   13.30600000
 H                  7.87100000    3.92500000   13.33700000
 C                  8.05600000    7.00200000   14.71200000
 O                  8.79200000    7.28800000   15.91000000
 C                  8.39200000    8.57300000   16.40800000
 O                  9.05900000    8.61100000   17.67800000
 C                  8.22500000    8.27800000   18.79800000
 C                  8.69900000    6.94200000   19.34500000
 O                  8.40500000    5.96400000   18.33600000
 H                  8.83800000    6.34200000   17.51700000
 C                  8.18100000    6.51600000   20.70900000
 O                  8.98000000    5.49200000   21.31800000
 H                  8.42100000    5.08300000   22.03900000
 C                  7.72800000   10.72100000   19.51800000
 O                  8.19000000   11.46100000   18.37800000
 H                  8.16500000   12.44300000   18.56300000
 C                  8.38300000    9.38500000   19.82800000
 O                  7.79900000    8.90400000   21.04700000
 C                  8.38400000    7.72200000   21.61200000
 O                  7.55100000    7.54500000   22.76700000
 H                  8.10223847    7.42594377   23.54389238
 H                  8.85917286    7.46547600   11.77101660
 H                  7.97631875    4.98839892   15.31616477
 H                  9.36171440    5.38947768   14.36438647
 H                  7.01269708    7.18019479   14.86905295
 H                  9.67109245    7.91602505   13.66774686
 H                  7.08855118    9.29104098   14.09107963
 H                  9.59634141   10.00064975   15.43880019
 H                  7.34466491    8.50722724   16.61695728
 H                  7.84726684   11.34603720   20.37823480
 H                  6.68118422   10.54386639   19.38495711
 H                  9.42756770    9.54937538   19.99158195
 H                  7.20350776    8.20716313   18.48745897
 H                  9.76444454    6.99987817   19.42486270
 H                  7.14986333    6.23354990   20.66565136
 H                  9.41088732    7.86588728   21.87600547

 1 2 1.0 31 1.0
 2 3 1.0 12 1.0 35 1.0
 3 4 1.0 6 1.0 36 1.0
 4 5 1.0
 5
 6 7 1.0 14 1.0 37 1.0
 7 8 1.0
 8
 9 10 1.0 12 1.0 32 1.0 33 1.0
 10 11 1.0
 11
 12 13 1.0 34 1.0
 13 14 1.0
 14 15 1.0 38 1.0
 15 16 1.0
 16 17 1.0 26 1.0 42 1.0
 17 18 1.0 20 1.0 43 1.0
 18 19 1.0
 19
 20 21 1.0 28 1.0 44 1.0
 21 22 1.0
 22
 23 24 1.0 26 1.0 39 1.0 40 1.0
 24 25 1.0
 25
 26 27 1.0 41 1.0
 27 28 1.0
 28 29 1.0 45 1.0
 29 30 1.0
 30
 31
 32
 33
 34
 35
 36
 37
 38
 39
 40
 41
 42
 43
 44
 45

