# freq=raman b3lyp/6-31+g(2d,p) geom=connectivity

320 5661/5661.com

0 1
 O                  7.72700000    7.55900000   12.26400000
 C                  8.24300000    7.87200000   13.56600000
 C                  7.59500000    9.12800000   14.12400000
 O                  7.69100000   10.18900000   13.16200000
 H                  7.58200000    9.80200000   12.24600000
 C                  8.12100000    9.60700000   15.46700000
 O                  7.35300000   10.65400000   16.07700000
 H                  7.84300000   10.96600000   16.89100000
 C                  8.42500000    5.47400000   14.26900000
 O                  7.95900000    4.76100000   13.11400000
 H                  8.00700000    3.80100000   13.38900000
 C                  7.94300000    6.86100000   14.66000000
 O                  8.72000000    7.28500000   15.78900000
 C                  8.12400000    8.42600000   16.42300000
 O                  8.94400000    8.62500000   17.58400000
 C                  8.35900000    8.36300000   18.86800000
 C                  9.01600000    7.09000000   19.37800000
 O                  8.72100000    6.05900000   18.42600000
 H                  8.95200000    6.38400000   17.50900000
 C                  8.47500000    6.72200000   20.75000000
 O                  9.04000000    5.55500000   21.36500000
 H                  8.64800000    5.45300000   22.27900000
 C                  7.95100000   10.86300000   19.54200000
 O                  8.38300000   11.60200000   18.39000000
 H                  8.13200000   12.56500000   18.48600000
 C                  8.63000000    9.52900000   19.80400000
 O                  8.10600000    9.11100000   21.07300000
 C                  8.67000000    7.92700000   21.65500000
 O                  7.94200000    7.65000000   22.86100000
 H                  8.55983611    7.48551860   23.57711759
 H                  9.70833167    8.07160013   21.86914514
 H                  7.42270366    6.55641641   20.64923052
 H                 10.07496856    7.23171151   19.43633907
 H                  7.30442239    8.21396000   18.76527153
 H                  9.68615147    9.67877594   19.88773317
 H                  8.09938913   11.48111970   20.40270245
 H                  6.90120538   10.68236740   19.44098949
 H                  8.45650367    7.41313711   11.65724765
 H                  8.23115941    4.84140361   15.10992071
 H                  9.48810470    5.54331986   14.16948539
 H                  6.89958670    6.85168143   14.89685829
 H                  9.30086856    8.01882167   13.50075043
 H                  6.55508411    8.91225428   14.25411046
 H                  9.12677489    9.94904896   15.33925268
 H                  7.12237102    8.19496567   16.72009011

 1 2 1.0 38 1.0
 2 3 1.0 12 1.0 42 1.0
 3 4 1.0 6 1.0 43 1.0
 4 5 1.0
 5
 6 7 1.0 14 1.0 44 1.0
 7 8 1.0
 8
 9 10 1.0 12 1.0 39 1.0 40 1.0
 10 11 1.0
 11
 12 13 1.0 41 1.0
 13 14 1.0
 14 15 1.0 45 1.0
 15 16 1.0
 16 17 1.0 26 1.0 34 1.0
 17 18 1.0 20 1.0 33 1.0
 18 19 1.0
 19
 20 21 1.0 28 1.0 32 1.0
 21 22 1.0
 22
 23 24 1.0 26 1.0 36 1.0 37 1.0
 24 25 1.0
 25
 26 27 1.0 35 1.0
 27 28 1.0
 28 29 1.0 31 1.0
 29 30 1.0
 30
 31
 32
 33
 34
 35
 36
 37
 38
 39
 40
 41
 42
 43
 44
 45

