# freq=raman b3lyp/6-31+g(2d,p) geom=connectivity

320 5661/5661.com

0 1
O           7.72700         7.55900        12.26400
C           8.24300         7.87200        13.56600
C           7.59500         9.12800        14.12400
O           7.69100        10.18900        13.16200
H           7.58200         9.80200        12.24600
C           8.12100         9.60700        15.46700
O           7.35300        10.65400        16.07700
H           7.84300        10.96600        16.89100
C           8.42500         5.47400        14.26900
O           7.95900         4.76100        13.11400
H           8.00700         3.80100        13.38900
C           7.94300         6.86100        14.66000
O           8.72000         7.28500        15.78900
C           8.12400         8.42600        16.42300
O           8.94400         8.62500        17.58400
C           8.35900         8.36300        18.86800
C           9.01600         7.09000        19.37800
O           8.72100         6.05900        18.42600
H           8.95200         6.38400        17.50900
C           8.47500         6.72200        20.75000
O           9.04000         5.55500        21.36500
H           8.64800         5.45300        22.27900
C           7.95100        10.86300        19.54200
O           8.38300        11.60200        18.39000
H           8.13200        12.56500        18.48600
C           8.63000         9.52900        19.80400
O           8.10600         9.11100        21.07300
C           8.67000         7.92700        21.65500
O           7.94200         7.65000        22.86100

