# freq=raman b3lyp/6-31+g(2d,p) geom=connectivity

423 5808/5808.com

0 1
O           7.71100         7.54900        11.98600
C           8.30900         7.79400        13.26700
C           7.85600         9.16200        13.74900
O           8.36100        10.20000        12.89600
H           8.47100         9.81400        11.98100
C           8.22500         9.53500        15.17600
O           7.64100        10.75400        15.66000
H           8.14500        11.02300        16.48100
C           8.44300         5.37500        14.08800
O           8.06300         4.84000        12.81200
H           8.32500         3.87600        12.84200
C           7.90100         6.77700        14.32100
O           8.26800         7.10600        15.66800
C           7.84100         8.40200        16.11400
O           8.65900         8.56000        17.28300
C           7.98200         8.29900        18.52000
C           8.38900         6.94300        19.07500
O           8.05700         5.91100        18.13400
H           8.34200         6.34000        17.27700
C           7.88200         6.64100        20.47500
O           8.29200         5.37100        21.00400
H           8.03900         5.23800        21.96200
C           7.96400        10.76800        19.32600
O           8.48300        11.47800        18.19200
H           8.14300        12.40700        18.34000
C           8.45700         9.34300        19.51800
O           8.07200         9.02600        20.86300
C           8.34000         7.73400        21.42600
O           7.47700         7.57100        22.56100

