# freq=raman b3lyp/6-31+g(2d,p) geom=connectivity

400 7322/7322.com

0 1
O           8.90500         7.71800        11.96500
C           9.47200         8.04000        13.24300
C           9.12500         9.43400        13.74000
O           9.41200        10.43900        12.75600
H           8.89700        10.15800        11.94600
C           9.93500         9.62100        15.01200
O           9.74700        10.91000        15.61400
H          10.10100        11.04300        16.53900
C           9.45300         5.56600        13.96900
O           8.62700         4.91200        12.99500
H           8.78700         3.92500        13.02600
C           9.11900         7.01100        14.30500
O           9.92300         7.26700        15.46600
C           9.54400         8.54000        16.00700
O          10.53600         8.49200        17.04200
C          10.01100         8.28200        18.36000
C          10.40800         6.90600        18.86900
O           9.80300         6.00200        17.93300
H           9.88700         6.32100        16.98900
C           9.77500         6.65400        20.22800
O          10.07000         5.34800        20.74400
H           9.84500         5.38500        21.71700
C          10.16100        10.69100        19.16700
O          10.62600        11.34900        17.97900
H          10.80200        12.32300        18.12200
C          10.47600         9.23200        19.45200
O           9.74300         9.05700        20.67300
C          10.12800         7.77500        21.19100
O           9.52900         7.57300        22.47900

