# freq=raman b3lyp/6-31+g(2d,p) geom=connectivity

400 7322/7322.com

0 1
 O                  8.90500000    7.71800000   11.96500000
 C                  9.47200000    8.04000000   13.24300000
 C                  9.12500000    9.43400000   13.74000000
 O                  9.41200000   10.43900000   12.75600000
 H                  8.89700000   10.15800000   11.94600000
 C                  9.93500000    9.62100000   15.01200000
 O                  9.74700000   10.91000000   15.61400000
 H                 10.10100000   11.04300000   16.53900000
 C                  9.45300000    5.56600000   13.96900000
 O                  8.62700000    4.91200000   12.99500000
 H                  8.78700000    3.92500000   13.02600000
 C                  9.11900000    7.01100000   14.30500000
 O                  9.92300000    7.26700000   15.46600000
 C                  9.54400000    8.54000000   16.00700000
 O                 10.53600000    8.49200000   17.04200000
 C                 10.01100000    8.28200000   18.36000000
 C                 10.40800000    6.90600000   18.86900000
 O                  9.80300000    6.00200000   17.93300000
 H                  9.88700000    6.32100000   16.98900000
 C                  9.77500000    6.65400000   20.22800000
 O                 10.07000000    5.34800000   20.74400000
 H                  9.84500000    5.38500000   21.71700000
 C                 10.16100000   10.69100000   19.16700000
 O                 10.62600000   11.34900000   17.97900000
 H                 10.80200000   12.32300000   18.12200000
 C                 10.47600000    9.23200000   19.45200000
 O                  9.74300000    9.05700000   20.67300000
 C                 10.12800000    7.77500000   21.19100000
 O                  9.52900000    7.57300000   22.47900000
 H                 10.21784773    7.46940090   23.13957251
 H                  9.60995646    7.55879065   11.33310699
 H                  9.40298523    4.99889152   14.87497268
 H                 10.46245729    5.53666400   13.61539658
 H                  8.08263718    7.09314580   14.55818801
 H                 10.53495427    8.01030637   13.12406091
 H                  8.08311373    9.46956886   13.98105573
 H                 10.97182725    9.50554255   14.77417899
 H                  8.53590722    8.58660400   16.36263606
 H                 10.53288482   11.25448707   19.99711083
 H                  9.09498955   10.78310387   19.17321231
 H                 11.52386044    9.10843626   19.62982154
 H                  8.94331602    8.32780887   18.30659158
 H                 11.47104612    6.78795785   18.89898338
 H                  8.71528106    6.69405637   20.08555264
 H                 11.19038835    7.77670774   21.31838945

 1 2 1.0 31 1.0
 2 3 1.0 12 1.0 35 1.0
 3 4 1.0 6 1.0 36 1.0
 4 5 1.0
 5
 6 7 1.0 14 1.0 37 1.0
 7 8 1.0
 8
 9 10 1.0 12 1.0 32 1.0 33 1.0
 10 11 1.0
 11
 12 13 1.0 34 1.0
 13 14 1.0
 14 15 1.0 38 1.0
 15 16 1.0
 16 17 1.0 26 1.0 42 1.0
 17 18 1.0 20 1.0 43 1.0
 18 19 1.0
 19
 20 21 1.0 28 1.0 44 1.0
 21 22 1.0
 22
 23 24 1.0 26 1.0 39 1.0 40 1.0
 24 25 1.0
 25
 26 27 1.0 41 1.0
 27 28 1.0
 28 29 1.0 45 1.0
 29 30 1.0
 30
 31
 32
 33
 34
 35
 36
 37
 38
 39
 40
 41
 42
 43
 44
 45

