# freq=raman b3lyp/6-31+g(2d,p) geom=connectivity

450 6165/6165.com

0 1
O          10.47800         7.55100        11.39000
C          11.41100         7.54300        12.48000
C          11.54700         8.93700        13.07100
O          12.45900         9.61900        12.19800
H          12.16600         9.57900        11.24300
C          12.08900         9.16100        14.47300
O          12.07200        10.54300        14.86100
H          12.68000        11.12400        14.32100
C          10.47900         5.29400        13.06700
O          10.03000         4.50600        14.17900
H           9.92000         3.57100        13.84300
C          10.79100         6.69200        13.57700
O          11.51000         6.80400        14.81400
C          11.38600         8.13100        15.34300
O          11.94900         7.97600        16.65400
C          11.10000         8.22400        17.78500
C          10.46100         6.92000        18.23500
O           9.54900         6.43300        17.24000
H          10.03500         6.19200        16.40000
C           9.78500         7.11400        19.58300
O           8.87300         6.10000        20.02900
H           8.10400         6.00000        19.39800
C          12.62000        10.13700        18.64500
O          13.36200        10.74000        19.71500
H          14.26400        10.36400        19.92700
C          11.94500         8.80100        18.90900
O          11.33800         8.79200        20.21000
C          10.77200         7.55000        20.65300
O          10.32300         7.80200        21.99300

