# freq=raman b3lyp/6-31+g(2d,p) geom=connectivity

450 6165/6165.com

0 1
 O                 10.47800000    7.55100000   11.39000000
 C                 11.41100000    7.54300000   12.48000000
 C                 11.54700000    8.93700000   13.07100000
 O                 12.45900000    9.61900000   12.19800000
 H                 12.16600000    9.57900000   11.24300000
 C                 12.08900000    9.16100000   14.47300000
 O                 12.07200000   10.54300000   14.86100000
 H                 12.68000000   11.12400000   14.32100000
 C                 10.47900000    5.29400000   13.06700000
 O                 10.03000000    4.50600000   14.17900000
 H                  9.92000000    3.57100000   13.84300000
 C                 10.79100000    6.69200000   13.57700000
 O                 11.51000000    6.80400000   14.81400000
 C                 11.38600000    8.13100000   15.34300000
 O                 11.94900000    7.97600000   16.65400000
 C                 11.10000000    8.22400000   17.78500000
 C                 10.46100000    6.92000000   18.23500000
 O                  9.54900000    6.43300000   17.24000000
 H                 10.03500000    6.19200000   16.40000000
 C                  9.78500000    7.11400000   19.58300000
 O                  8.87300000    6.10000000   20.02900000
 H                  8.10400000    6.00000000   19.39800000
 C                 12.62000000   10.13700000   18.64500000
 O                 13.36200000   10.74000000   19.71500000
 H                 14.26400000   10.36400000   19.92700000
 C                 11.94500000    8.80100000   18.90900000
 O                 11.33800000    8.79200000   20.21000000
 C                 10.77200000    7.55000000   20.65300000
 O                 10.32300000    7.80200000   21.99300000
 H                 11.08259464    7.91049667   22.56992673
 H                 11.86175868   10.82992030   18.34528085
 H                 13.28897161   10.00511478   17.82038901
 H                 12.75858022    8.11143013   18.99549065
 H                 10.33665544    8.92327231   17.51440192
 H                 11.23791299    6.19419398   18.35546508
 H                  9.16168962    7.97129694   19.43662333
 H                 11.55455318    6.82162762   20.69754424
 H                 10.95752441    7.55710375   10.55836361
 H                 11.36067381    4.85714932   12.64662780
 H                  9.71012462    5.34303165   12.32448633
 H                  9.83658436    7.13477144   13.77179281
 H                 12.36071054    7.15392593   12.17739256
 H                 10.59398567    9.41886897   13.00417202
 H                 13.12004289    8.87597160   14.44831458
 H                 10.35004415    8.38481815   15.42827501

 1 2 1.0 38 1.0
 2 3 1.0 12 1.0 42 1.0
 3 4 1.0 6 1.0 43 1.0
 4 5 1.0
 5
 6 7 1.0 14 1.0 44 1.0
 7 8 1.0
 8
 9 10 1.0 12 1.0 39 1.0 40 1.0
 10 11 1.0
 11
 12 13 1.0 41 1.0
 13 14 1.0
 14 15 1.0 45 1.0
 15 16 1.0
 16 17 1.0 26 1.0 34 1.0
 17 18 1.0 20 1.0 35 1.0
 18 19 1.0
 19
 20 21 1.0 28 1.0 36 1.0
 21 22 1.0
 22
 23 24 1.0 26 1.0 31 1.0 32 1.0
 24 25 1.0
 25
 26 27 1.0 33 1.0
 27 28 1.0
 28 29 1.0 37 1.0
 29 30 1.0
 30
 31
 32
 33
 34
 35
 36
 37
 38
 39
 40
 41
 42
 43
 44
 45

