# freq=raman b3lyp/6-31+g(d,p) geom=connectivity

280 8000.com

0 1
O           7.67600         7.60600        22.97300
C           8.29200         7.91500        24.23200
C           7.89100         9.32200        24.64500
O           8.07100        10.29600        23.60700
H           7.89500         9.79600        22.75900
C           8.37900         9.64700        26.04700
O           7.96800        10.96100        26.45000
H           8.08300        10.94800        27.44300
C           8.27500         5.46200        25.07500
O           7.99600         4.78300        23.84200
H           7.98300         3.79300        23.98200
C           7.95700         6.92500        25.33600
O           8.48800         7.35100        26.60000
C           7.98400         8.60500        27.08100
O           8.68800         8.90500        28.29500
C           8.22500         8.42200        29.56400
C           8.96100         7.15000        29.95200
O           8.75100         6.04500        29.06000
H           8.78800         6.42400        28.13600
C           8.57300         6.75200        31.36700
O           9.20900         5.61100        31.96100
H           8.70400         5.36500        32.78800
C           7.60900        10.77600        30.09500
O           8.32700        11.55700        29.12800
H           8.04100        12.51300        29.17800
C           8.32000         9.53100        30.59900
O           7.81000         9.04800        31.85000
C           8.52300         7.90900        32.35300
O           7.80400         7.56000        33.54500

