%chk=alpha-d-glucose-unopt.chk
# freq=raman b3lyp/6-31+g(2df,p) scrf=(smd,solvent=water) geom=connectivity

alpha-d-glucose raman unoptimized

0 1
 O                 -0.79630000   -1.08340000   -0.58260000
 O                 -0.53450000    2.36040000    0.70610000
 O                  2.10220000    1.84490000   -0.31080000
 O                  2.83960000   -0.94290000   -0.06640000
 O                  0.54530000   -2.03500000    1.12470000
 O                 -3.43210000   -0.68210000   -0.04170000
 C                 -0.21290000    1.24450000   -0.12090000
 C                  1.22750000    0.82830000    0.18410000
 C                 -1.19060000    0.09010000    0.13760000
 C                  1.56100000   -0.49490000   -0.50210000
 C                  0.50080000   -1.56060000   -0.21980000
 C                 -2.61000000    0.43070000   -0.30820000
 H                 -0.28790000    1.57190000   -1.16600000
 H                  1.40500000    0.76920000    1.26460000
 H                 -1.22770000   -0.15090000    1.20820000
 H                  1.62780000   -0.32360000   -1.58340000
 H                  0.70590000   -2.43540000   -0.84550000
 H                 -2.65450000    0.63500000   -1.38320000
 H                 -3.00480000    1.29620000    0.23150000
 H                  0.00180000    3.11420000    0.40840000
 H                  1.96280000    2.64220000    0.22730000
 H                  2.78690000   -1.11930000    0.88830000
 H                  0.77080000   -1.29370000    1.70960000
 H                 -3.07300000   -1.44100000   -0.53250000

 1 9 1.0 11 1.0
 2 7 1.0 20 1.0
 3 8 1.0 21 1.0
 4 10 1.0 22 1.0
 5 11 1.0 23 1.0
 6 12 1.0 24 1.0
 7 8 1.0 9 1.0 13 1.0
 8 10 1.0 14 1.0
 9 12 1.0 15 1.0
 10 11 1.0 16 1.0
 11 17 1.0
 12 18 1.0 19 1.0
 13
 14
 15
 16
 17
 18
 19
 20
 21
 22
 23
 24

