# freq=raman b3lyp/6-31+g(2d,p) geom=connectivity

483 7158/7158.com

0 1
 O                  7.73600000    7.82800000   12.18300000
 C                  8.44200000    8.07000000   13.40900000
 C                  8.07600000    9.48100000   13.83800000
 O                  8.53700000   10.41800000   12.85300000
 H                  8.11200000   10.07300000   12.01700000
 C                  8.41500000    9.72000000   15.30000000
 O                  7.80600000   10.92800000   15.77900000
 H                  7.88900000   10.99700000   16.77300000
 C                  8.50900000    5.68400000   14.23400000
 O                  8.04100000    5.11600000   13.00200000
 H                  8.12700000    4.12200000   13.06900000
 C                  8.05000000    7.10500000   14.51700000
 O                  8.50800000    7.32900000   15.85800000
 C                  7.96400000    8.60400000   16.22900000
 O                  8.82700000    8.74200000   17.36700000
 C                  8.33300000    8.51600000   18.69600000
 C                  8.76500000    7.13700000   19.16600000
 O                  8.44000000    6.13000000   18.19700000
 H                  8.50500000    6.68700000   17.37000000
 C                  8.25500000    6.81500000   20.56200000
 O                  8.89900000    5.62600000   21.04200000
 H                  8.42100000    5.27100000   21.84500000
 C                  8.29500000   10.98000000   19.55500000
 O                  8.33400000   11.63500000   18.27900000
 H                  7.99300000   12.57400000   18.32200000
 C                  8.77900000    9.54800000   19.71900000
 O                  8.21600000    9.20700000   20.99400000
 C                  8.68400000    7.94300000   21.48600000
 O                  7.83400000    7.77100000   22.62900000
 H                  8.37358415    7.65284698   23.41416802
 H                  8.86625719   11.58113027   20.23117129
 H                  7.27806203   11.00490333   19.88683880
 H                  9.84669994    9.54003579   19.78866641
 H                  7.26384393    8.53225295   18.65674268
 H                  9.83269802    7.15988386   19.23231191
 H                  7.19098596    6.70201347   20.56485933
 H                  9.72620985    7.93297279   21.72807041
 H                  8.36662891    7.68783097   11.47288746
 H                  8.17725728    5.05956608   15.03707475
 H                  9.57888150    5.67483821   14.22097515
 H                  6.98059721    7.09199312   14.55029416
 H                  9.49602057    8.00911594   13.23512139
 H                  7.00811434    9.52723082   13.78918481
 H                  9.47677897    9.82069951   15.38593619
 H                  6.92156546    8.59728872   16.47021608

 1 2 1.0 38 1.0
 2 3 1.0 12 1.0 42 1.0
 3 4 1.0 6 1.0 43 1.0
 4 5 1.0
 5
 6 7 1.0 14 1.0 44 1.0
 7 8 1.0
 8
 9 10 1.0 12 1.0 39 1.0 40 1.0
 10 11 1.0
 11
 12 13 1.0 41 1.0
 13 14 1.0
 14 15 1.0 45 1.0
 15 16 1.0
 16 17 1.0 26 1.0 34 1.0
 17 18 1.0 20 1.0 35 1.0
 18 19 1.0
 19
 20 21 1.0 28 1.0 36 1.0
 21 22 1.0
 22
 23 24 1.0 26 1.0 31 1.0 32 1.0
 24 25 1.0
 25
 26 27 1.0 33 1.0
 27 28 1.0
 28 29 1.0 37 1.0
 29 30 1.0
 30
 31
 32
 33
 34
 35
 36
 37
 38
 39
 40
 41
 42
 43
 44
 45

