# freq=raman b3lyp/6-31+g(2d,p) geom=connectivity

483 7158/7158.com

0 1
O           7.73600         7.82800        12.18300
C           8.44200         8.07000        13.40900
C           8.07600         9.48100        13.83800
O           8.53700        10.41800        12.85300
H           8.11200        10.07300        12.01700
C           8.41500         9.72000        15.30000
O           7.80600        10.92800        15.77900
H           7.88900        10.99700        16.77300
C           8.50900         5.68400        14.23400
O           8.04100         5.11600        13.00200
H           8.12700         4.12200        13.06900
C           8.05000         7.10500        14.51700
O           8.50800         7.32900        15.85800
C           7.96400         8.60400        16.22900
O           8.82700         8.74200        17.36700
C           8.33300         8.51600        18.69600
C           8.76500         7.13700        19.16600
O           8.44000         6.13000        18.19700
H           8.50500         6.68700        17.37000
C           8.25500         6.81500        20.56200
O           8.89900         5.62600        21.04200
H           8.42100         5.27100        21.84500
C           8.29500        10.98000        19.55500
O           8.33400        11.63500        18.27900
H           7.99300        12.57400        18.32200
C           8.77900         9.54800        19.71900
O           8.21600         9.20700        20.99400
C           8.68400         7.94300        21.48600
O           7.83400         7.77100        22.62900

