# freq=raman b3lyp/6-31+g(2d,p) geom=connectivity

350 6692/6692.com

0 1
O           7.66400         7.28600        12.26500
C           8.42900         7.64700        13.42400
C           7.87800         8.96600        13.94200
O           8.06600        10.01200        12.97800
H           7.43100         9.65400        12.29300
C           8.38600         9.36100        15.31900
O           7.87200        10.61200        15.79900
H           8.28500        10.75800        16.69800
C           8.53700         5.31400        14.20800
O           8.20000         4.58800        13.01700
H           8.39600         3.63500        13.24900
C           7.96700         6.69000        14.51200
O           8.55500         7.00900        15.78100
C           8.14800         8.26500        16.34500
O           8.97000         8.37600        17.51600
C           8.29400         8.07400        18.74500
C           8.79900         6.75500        19.30900
O           8.70200         5.73100        18.30900
H           8.77600         5.99300        17.34700
C           8.13800         6.42500        20.63700
O           8.56900         5.20600        21.25900
H           8.26000         5.17600        22.21000
C           8.03100        10.56400        19.48900
O           8.57100        11.29200        18.37600
H           8.41500        12.28000        18.38400
C           8.49500         9.15000        19.80000
O           7.78700         8.82400        21.00500
C           8.33200         7.61800        21.56000
O           7.64500         7.42600        22.80500

