# freq=raman b3lyp/6-31+g(2d,p) geom=connectivity

500 6680/6680.com

0 1
 O                  9.20900000    7.38400000   11.51700000
 C                  9.97000000    7.58200000   12.71700000
 C                  9.45900000    8.88400000   13.31300000
 O                  9.93200000    9.98900000   12.52900000
 H                  9.84900000    9.82500000   11.54600000
 C                 10.02900000    9.25300000   14.67300000
 O                  9.40500000   10.49200000   15.03800000
 H                 10.00900000   11.28800000   15.06300000
 C                 10.12800000    5.06700000   13.42200000
 O                  9.41900000    4.18200000   14.30200000
 H                  9.37600000    3.22300000   14.02200000
 C                  9.60000000    6.46800000   13.68400000
 O                 10.05900000    6.79300000   15.00400000
 C                  9.76000000    8.06900000   15.58700000
 O                 10.52900000    8.02400000   16.79800000
 C                  9.73800000    7.72900000   17.95900000
 C                  9.68400000    6.25600000   18.32700000
 O                  9.08700000    5.51000000   17.25700000
 H                  9.30200000    5.91800000   16.37000000
 C                  9.08700000    5.74900000   19.63000000
 O                  9.08200000    4.31600000   19.71200000
 H                  8.95200000    4.18600000   18.72900000
 C                 10.67500000    9.78100000   19.14500000
 O                 11.00600000   10.57900000   20.29100000
 H                 10.56200000   11.47400000   20.24000000
 C                 10.32000000    8.30600000   19.23900000
 O                  9.70100000    7.93100000   20.47800000
 C                  9.72500000    6.52600000   20.76900000
 O                  8.95400000    6.30500000   21.96000000
 H                  9.54572701    6.16708162   22.70326151
 H                  9.84694519   10.26280159   18.66845781
 H                 11.50693261    9.85099850   18.47575539
 H                 11.27680662    7.83082346   19.29923578
 H                  8.74407191    8.09962285   17.81883704
 H                 10.70758650    5.94566752   18.35640119
 H                  8.05773441    6.04117215   19.61784399
 H                 10.73278920    6.19876416   20.91792155
 H                 11.17673426    5.02678948   13.63042158
 H                  9.94663284    4.79258354   12.40381457
 H                  8.53198491    6.41029124   13.71422356
 H                  9.80653930    7.26167897   10.77566043
 H                 11.02200419    7.61463054   12.52432817
 H                  8.38950762    8.88458499   13.34595017
 H                 11.08522776    9.40057142   14.58636514
 H                  8.72286274    8.08236847   15.84980712

 1 2 1.0 41 1.0
 2 3 1.0 12 1.0 42 1.0
 3 4 1.0 6 1.0 43 1.0
 4 5 1.0
 5
 6 7 1.0 14 1.0 44 1.0
 7 8 1.0
 8
 9 10 1.0 12 1.0 38 1.0 39 1.0
 10 11 1.0
 11
 12 13 1.0 40 1.0
 13 14 1.0
 14 15 1.0 45 1.0
 15 16 1.0
 16 17 1.0 26 1.0 34 1.0
 17 18 1.0 20 1.0 35 1.0
 18 19 1.0
 19
 20 21 1.0 28 1.0 36 1.0
 21 22 1.0
 22
 23 24 1.0 26 1.0 31 1.0 32 1.0
 24 25 1.0
 25
 26 27 1.0 33 1.0
 27 28 1.0
 28 29 1.0 37 1.0
 29 30 1.0
 30
 31
 32
 33
 34
 35
 36
 37
 38
 39
 40
 41
 42
 43
 44
 45

