# freq=raman b3lyp/6-31+g(2d,p) geom=connectivity

500 6680/6680.com

0 1
O           9.20900         7.38400        11.51700
C           9.97000         7.58200        12.71700
C           9.45900         8.88400        13.31300
O           9.93200         9.98900        12.52900
H           9.84900         9.82500        11.54600
C          10.02900         9.25300        14.67300
O           9.40500        10.49200        15.03800
H          10.00900        11.28800        15.06300
C          10.12800         5.06700        13.42200
O           9.41900         4.18200        14.30200
H           9.37600         3.22300        14.02200
C           9.60000         6.46800        13.68400
O          10.05900         6.79300        15.00400
C           9.76000         8.06900        15.58700
O          10.52900         8.02400        16.79800
C           9.73800         7.72900        17.95900
C           9.68400         6.25600        18.32700
O           9.08700         5.51000        17.25700
H           9.30200         5.91800        16.37000
C           9.08700         5.74900        19.63000
O           9.08200         4.31600        19.71200
H           8.95200         4.18600        18.72900
C          10.67500         9.78100        19.14500
O          11.00600        10.57900        20.29100
H          10.56200        11.47400        20.24000
C          10.32000         8.30600        19.23900
O           9.70100         7.93100        20.47800
C           9.72500         6.52600        20.76900
O           8.95400         6.30500        21.96000

