# freq=raman b3lyp/6-31+g(2d,p) geom=connectivity

400 9855/9855.com

0 1
 O                  9.32100000    7.63900000   11.80900000
 C                 10.03800000    7.77100000   13.04600000
 C                 10.01000000    9.19300000   13.58200000
 O                 10.31800000   10.13600000   12.54500000
 H                 10.05600000    9.79000000   11.64400000
 C                 10.75600000    9.35600000   14.89600000
 O                 10.60200000   10.69700000   15.38100000
 H                 11.03900000   10.71700000   16.28000000
 C                  9.53600000    5.45300000   13.82700000
 O                  8.71600000    4.84000000   12.82200000
 H                  8.83000000    3.84700000   12.79000000
 C                  9.50400000    6.92800000   14.19300000
 O                 10.24200000    7.04500000   15.41800000
 C                 10.16600000    8.39100000   15.91100000
 O                 10.93300000    8.44900000   17.12200000
 C                 10.18500000    8.32600000   18.34000000
 C                 10.41600000    6.91000000   18.84100000
 O                 10.15000000    5.89700000   17.86000000
 H                 10.36100000    6.19000000   16.92700000
 C                  9.76400000    6.69100000   20.19600000
 O                 10.02500000    5.34900000   20.63300000
 H                  9.80200000    5.21500000   21.59800000
 C                 10.86900000   10.62400000   19.04300000
 O                 11.58200000   11.24700000   17.96400000
 H                 11.47400000   12.22000000   18.17000000
 C                 10.87600000    9.15000000   19.41400000
 O                 10.27900000    9.06900000   20.71700000
 C                 10.30100000    7.71300000   21.18500000
 O                  9.54500000    7.81400000   22.40100000
 H                 10.14585224    7.87597440   23.14714728
 H                 11.17825648   11.14230903   19.92652486
 H                  9.84037749   10.87452320   18.88784248
 H                 11.89240593    8.82370985   19.48716910
 H                  9.14841590    8.56624120   18.22740527
 H                 11.46815544    6.84660074   19.02498225
 H                  8.70688976    6.82476151   20.09839981
 H                 11.30938556    7.45192074   21.42973695
 H                  9.94538093    7.56162535   11.08390579
 H                  9.34048691    4.91940830   14.73361708
 H                 10.54802742    5.23835595   13.55381795
 H                  8.48910416    7.21149733   14.37878401
 H                 11.05745239    7.49606248   12.87271936
 H                  8.98472134    9.37798345   13.82589505
 H                 11.79405504    9.14002292   14.75214024
 H                  9.14721266    8.64943321   16.11146106

 1 2 1.0 38 1.0
 2 3 1.0 12 1.0 42 1.0
 3 4 1.0 6 1.0 43 1.0
 4 5 1.0
 5
 6 7 1.0 14 1.0 44 1.0
 7 8 1.0
 8
 9 10 1.0 12 1.0 39 1.0 40 1.0
 10 11 1.0
 11
 12 13 1.0 41 1.0
 13 14 1.0
 14 15 1.0 45 1.0
 15 16 1.0
 16 17 1.0 26 1.0 34 1.0
 17 18 1.0 20 1.0 35 1.0
 18 19 1.0
 19
 20 21 1.0 28 1.0 36 1.0
 21 22 1.0
 22
 23 24 1.0 26 1.0 31 1.0 32 1.0
 24 25 1.0
 25
 26 27 1.0 33 1.0
 27 28 1.0
 28 29 1.0 37 1.0
 29 30 1.0
 30
 31
 32
 33
 34
 35
 36
 37
 38
 39
 40
 41
 42
 43
 44
 45

