# freq=raman b3lyp/6-31+g(d,p) geom=connectivity

280 5000.com

0 1
O           7.57300         7.78500        22.78500
C           8.20200         8.11000        24.03300
C           7.51200         9.37400        24.52100
O           7.71100        10.42100        23.56100
H           7.65800        10.00100        22.65500
C           7.83300         9.72200        25.96500
O           7.00300        10.81500        26.38600
H           7.36000        11.28200        27.19600
C           8.52700         5.68700        24.82100
O           8.23500         4.92500        23.64100
H           8.10600         3.96000        23.87200
C           7.86500         7.03600        25.05500
O           8.22600         7.37900        26.40100
C           7.60400         8.56300        26.92100
O           8.42300         8.68500        28.09300
C           7.82900         8.35100        29.35600
C           8.45300         7.08300        29.91700
O           8.23800         6.09700        28.89700
H           8.47900         6.45800        27.99700
C           7.89000         6.71200        31.27900
O           8.60200         5.54500        31.71500
H           8.22900         5.25800        32.59700
C           7.61300        10.95900        30.04500
O           7.98300        11.71700        28.88400
H           8.24800        12.65500        29.10600
C           8.04700         9.52500        30.29700
O           7.34400         9.08300        31.46800
C           7.98100         7.97500        32.12000
O           7.27100         7.81500        33.35700

