# freq=raman b3lyp/6-31+g(2df,p) geom=connectivity

400 8000.com

0 1
 O                  9.66400000    7.65600000   12.09400000
 C                 10.34200000    7.82900000   13.34700000
 C                 10.31900000    9.25200000   13.88200000
 O                 10.79600000   10.20900000   12.92500000
 H                 10.44800000    9.88100000   12.04700000
 C                 10.99300000    9.46100000   15.22800000
 O                 10.46000000   10.65100000   15.82500000
 H                 10.83800000   10.84600000   16.73000000
 C                 10.34900000    5.39900000   14.06100000
 O                  9.47300000    4.79500000   13.09800000
 H                  9.43300000    3.85700000   13.44400000
 C                 10.05000000    6.83500000   14.45900000
 O                 10.89700000    7.10000000   15.58700000
 C                 10.54100000    8.36000000   16.17300000
 O                 11.38500000    8.25500000   17.32900000
 C                 10.73100000    8.18600000   18.60500000
 C                 10.53700000    6.83300000   19.27000000
 O                  9.91700000    6.00500000   18.27600000
 H                 10.25600000    6.16500000   17.34900000
 C                  9.82900000    6.81300000   20.61600000
 O                  9.92300000    5.52800000   21.24900000
 H                  9.68000000    5.54900000   22.21900000
 C                 11.69700000   10.35500000   19.20100000
 O                 10.77500000   11.22900000   18.53300000
 H                 11.04200000   12.19300000   18.55400000
 C                 11.38900000    8.96400000   19.73200000
 O                 10.52000000    9.12800000   20.86200000
 C                 10.38500000    7.87600000   21.54900000
 O                  9.50500000    7.94300000   22.68100000
 H                 10.02386119    7.99072219   23.48729130
 H                 11.35197722    7.56493285   21.88529196
 H                  8.79377307    7.02600902   20.44916967
 H                 11.51474506    6.43226506   19.43830360
 H                  9.75595293    8.60427236   18.46632255
 H                 12.29384760    8.47860729   20.03290653
 H                 12.51948498   10.23240160   18.52765901
 H                 12.06671587   10.90930162   20.03823348
 H                 10.31054717    7.55894289   11.39103722
 H                 10.32523393    4.80053261   14.94766338
 H                 11.34299313    5.36762569   13.66616672
 H                  9.02481998    6.91863107   14.75380803
 H                 11.37006207    7.65461317   13.10704663
 H                  9.28607129    9.48440205   14.03675003
 H                 12.05880329    9.50056403   15.14198813
 H                  9.50200209    8.41780986   16.42208105

 1 2 1.0 38 1.0
 2 3 1.0 12 1.0 42 1.0
 3 4 1.0 6 1.0 43 1.0
 4 5 1.0
 5
 6 7 1.0 14 1.0 44 1.0
 7 8 1.0
 8
 9 10 1.0 12 1.0 39 1.0 40 1.0
 10 11 1.0
 11
 12 13 1.0 41 1.0
 13 14 1.0
 14 15 1.0 45 1.0
 15 16 1.0
 16 17 1.0 26 1.0 34 1.0
 17 18 1.0 20 1.0 33 1.0
 18 19 1.0
 19
 20 21 1.0 28 1.0 32 1.0
 21 22 1.0
 22
 23 24 1.0 26 1.0 36 1.0 37 1.0
 24 25 1.0
 25
 26 27 1.0 35 1.0
 27 28 1.0
 28 29 1.0 31 1.0
 29 30 1.0
 30
 31
 32
 33
 34
 35
 36
 37
 38
 39
 40
 41
 42
 43
 44
 45

