# freq=raman b3lyp/6-31+g(2d,p) geom=connectivity

483 7000.com

0 1
C           7.99200         7.87800        23.85800
C           7.54200         9.23700        24.36900
O           7.87700        10.24900        23.40900
H           7.53100         9.97900        22.51000
C           8.04300         9.67300        25.73600
O           7.44400        10.89400        26.19500
H           7.86400        11.12100        27.07400
C           8.23000         5.48400        24.73200
O           7.65100         4.79000        23.61700
H           7.85800         3.81300        23.66200
C           7.69300         6.88600        24.97000
O           8.33800         7.32900        26.17300
C           7.77100         8.53500        26.70600
O           8.56100         8.60600        27.90200
C           8.05800         8.43700        29.23500
C           8.68500         7.13600        29.71100
O           8.53900         6.11000        28.71900
H           8.61000         6.47600        27.79100
C           8.12100         6.65600        31.03800
O           8.74900         5.47100        31.54800
H           8.46600         5.30900        32.49300
C           7.86000        10.87200        29.97400
O           8.25200        11.51700        28.75400
H           8.10000        12.49300        28.90700
C           8.38400         9.48100        30.29000
O           7.88500         9.04600        31.56300
C           8.43000         7.79200        31.99900
O           7.76800         7.51400        33.24200
C           8.23500         7.84300        34.55800

