# freq=raman b3lyp/6-31+g(d,p) geom=connectivity

300 10000.com

0 1
O           7.26300         7.61900        22.79400
C           7.74400         7.91700        24.11200
C           7.49700         9.33900        24.58600
O           7.70200        10.33400        23.57200
H           7.34300         9.93100        22.73000
C           8.20300         9.72400        25.87600
O           8.09400        11.04100        26.43400
H           8.40400        11.02200        27.38500
C           7.56800         5.49600        24.93900
O           7.18500         4.82100        23.73200
H           7.60400         3.91300        23.74500
C           7.18000         6.95200        25.14200
O           7.73800         7.35200        26.40200
C           7.68400         8.70500        26.87800
O           8.56600         8.67600        28.00900
C           8.08800         8.31900        29.31400
C           8.54000         6.97300        29.85900
O           8.05300         6.04700        28.87700
H           8.00400         6.43000        27.95400
C           7.96000         6.53200        31.19300
O           8.59700         5.39400        31.79200
H           8.24600         5.26800        32.72000
C           8.04100        10.75100        30.07100
O           8.73100        11.46000        29.03100
H           8.47200        12.42600        29.00200
C           8.38500         9.31300        30.42500
O           7.64400         9.00500        31.61400
C           8.13800         7.74500        32.09200
O           7.34100         7.71800        33.28500

