# freq=raman b3lyp/6-31+g(2d,p) geom=connectivity

493 6000.com

0 1
C           8.25000         7.81800        24.20200
C           7.67100         9.14700        24.66000
O           8.05700        10.29600        23.89100
H           8.16200        10.00200        22.94000
C           8.01800         9.54600        26.08500
O           7.21700        10.64800        26.53600
H           7.62600        10.85700        27.42400
C           8.49500         5.30600        24.84100
O           7.79400         4.72600        23.73100
H           7.97500         3.75300        23.58900
C           8.03900         6.70600        25.21700
O           8.61900         7.14600        26.45400
C           8.00700         8.32700        26.99200
O           8.75700         8.63000        28.17700
C           8.25100         8.23100        29.45900
C           8.90400         6.97900        30.02200
O           8.97300         5.96800        29.00600
H           8.93600         6.47100        28.14200
C           8.23200         6.46100        31.28300
O           8.63700         5.19800        31.83300
H           8.06000         5.01300        32.62900
C           7.58600        10.52200        30.11300
O           7.90000        11.28000        28.93600
H           7.72100        12.22800        29.19700
C           8.36200         9.28800        30.54500
O           7.75900         8.79500        31.75000
C           8.33600         7.59600        32.28800
O           7.56700         7.43600        33.48900
C           8.17000         7.80500        34.73700

