# freq=raman b3lyp/6-31+g(2d,p) geom=connectivity

493 6000/6000.com

0 1
 O                  7.84500000    7.41500000   12.40800000
 C                  8.48100000    7.84700000   13.62000000
 C                  7.83800000    9.13600000   14.10500000
 O                  8.03100000   10.16000000   13.11900000
 H                  7.83400000    9.81600000   12.20100000
 C                  8.38900000    9.59300000   15.44600000
 O                  7.82700000   10.77500000   16.03500000
 H                  8.47400000   10.93400000   16.78100000
 C                  8.65700000    5.34700000   14.36100000
 O                  7.94900000    4.65700000   13.32000000
 H                  7.92200000    3.66800000   13.46200000
 C                  8.10100000    6.74200000   14.59100000
 O                  8.62600000    7.19900000   15.84600000
 C                  8.12100000    8.42900000   16.38600000
 O                  8.98100000    8.62200000   17.51800000
 C                  8.51600000    8.22100000   18.81500000
 C                  9.08500000    6.94700000   19.41800000
 O                  9.07800000    5.93700000   18.39800000
 H                  9.22600000    6.33200000   17.49100000
 C                  8.42300000    6.51200000   20.71500000
 O                  8.69800000    5.17900000   21.17000000
 H                  8.10500000    4.91400000   21.93000000
 C                  8.35300000   10.61000000   19.70100000
 O                  8.61700000   11.35700000   18.50500000
 H                  8.36500000   12.31000000   18.67300000
 C                  8.89300000    9.20400000   19.91100000
 O                  8.31700000    8.92600000   21.19500000
 C                  8.60400000    7.62700000   21.73300000
 O                  7.76500000    7.50200000   22.89000000
 H                  8.31204323    7.41726323   23.67432352
 H                  9.62356058    7.61761917   22.05751229
 H                  7.37518848    6.50721900   20.49827862
 H                 10.11050327    7.14589161   19.64970060
 H                  7.44983100    8.13671426   18.78214322
 H                  9.95849229    9.24293478   20.00105702
 H                  8.71000026   11.20158591   20.51799261
 H                  7.28904104   10.54802366   19.79613288
 H                  8.51459025    7.18403028   11.76000163
 H                  9.68897638    5.42367400   14.08888635
 H                  8.57637232    4.78575331   15.26841464
 H                  7.03447596    6.68624272   14.65670846
 H                  9.54133974    7.93793207   13.50904506
 H                  6.78702285    8.96708537   14.21369629
 H                  9.44680126    9.72575217   15.35471274
 H                  7.09135864    8.35805613   16.66832186

 1 2 1.0 38 1.0
 2 3 1.0 12 1.0 42 1.0
 3 4 1.0 6 1.0 43 1.0
 4 5 1.0
 5
 6 7 1.0 14 1.0 44 1.0
 7 8 1.0
 8
 9 10 1.0 12 1.0 39 1.0 40 1.0
 10 11 1.0
 11
 12 13 1.0 41 1.0
 13 14 1.0
 14 15 1.0 45 1.0
 15 16 1.0
 16 17 1.0 26 1.0 34 1.0
 17 18 1.0 20 1.0 33 1.0
 18 19 1.0
 19
 20 21 1.0 28 1.0 32 1.0
 21 22 1.0
 22
 23 24 1.0 26 1.0 36 1.0 37 1.0
 24 25 1.0
 25
 26 27 1.0 35 1.0
 27 28 1.0
 28 29 1.0 31 1.0
 29 30 1.0
 30
 31
 32
 33
 34
 35
 36
 37
 38
 39
 40
 41
 42
 43
 44
 45

