# freq=raman b3lyp/6-31+g(2d,p) geom=connectivity

320 8727/8727.com

0 1
 O                  8.15300000    7.44200000   12.09500000
 C                  8.54600000    7.92200000   13.38900000
 C                  7.76000000    9.15200000   13.81200000
 O                  8.02800000   10.20200000   12.87100000
 H                  7.70400000    9.91300000   11.97000000
 C                  8.06500000    9.68100000   15.20400000
 O                  7.26400000   10.77900000   15.66300000
 H                  7.53900000   11.05100000   16.58500000
 C                  8.77000000    5.49500000   14.35400000
 O                  8.76500000    4.85300000   13.07100000
 H                  8.76500000    3.86300000   13.21200000
 C                  8.18900000    6.89700000   14.45300000
 O                  8.49400000    7.30100000   15.79500000
 C                  7.85500000    8.52900000   16.17300000
 O                  8.64900000    8.76000000   17.34600000
 C                  8.16700000    8.31200000   18.62100000
 C                  8.76200000    7.03800000   19.19800000
 O                  8.51200000    5.97400000   18.26800000
 H                  8.76900000    6.26000000   17.34500000
 C                  8.27000000    6.72700000   20.60200000
 O                  9.03000000    5.60800000   21.08100000
 H                  8.53500000    5.21800000   21.85700000
 C                  7.69600000   10.81700000   19.41900000
 O                  7.80600000   11.42800000   18.12500000
 H                  7.64000000   12.41300000   18.17100000
 C                  8.31200000    9.44300000   19.62600000
 O                  7.75500000    9.16000000   20.91800000
 C                  8.28500000    7.95800000   21.49400000
 O                  7.48900000    7.70700000   22.66100000
 H                  8.06448908    7.54542999   23.41220400
 H                  8.14354904   11.48130417   20.12843627
 H                  6.65455039   10.74209328   19.65281980
 H                  9.36270534    9.59290367   19.76182042
 H                  9.29316056    8.14316283   21.80096417
 H                  7.25182335    6.40826176   20.52062280
 H                  9.82181032    7.17440944   19.25362867
 H                  7.11849907    8.13297568   18.50482731
 H                  8.93585716    7.24875639   11.57404743
 H                  8.22664717    4.87006948   15.03159099
 H                  9.78476507    5.53986134   14.69036187
 H                  7.12604811    6.78404848   14.40530048
 H                  9.59603860    8.12683754   13.40798723
 H                  6.71752440    8.91553488   13.76478914
 H                  9.09372776    9.97328267   15.23849692
 H                  6.82284476    8.38508510   16.41557796

 1 2 1.0 38 1.0
 2 3 1.0 12 1.0 42 1.0
 3 4 1.0 6 1.0 43 1.0
 4 5 1.0
 5
 6 7 1.0 14 1.0 44 1.0
 7 8 1.0
 8
 9 10 1.0 12 1.0 39 1.0 40 1.0
 10 11 1.0
 11
 12 13 1.0 41 1.0
 13 14 1.0
 14 15 1.0 45 1.0
 15 16 1.0
 16 17 1.0 26 1.0 37 1.0
 17 18 1.0 20 1.0 36 1.0
 18 19 1.0
 19
 20 21 1.0 28 1.0 35 1.0
 21 22 1.0
 22
 23 24 1.0 26 1.0 31 1.0 32 1.0
 24 25 1.0
 25
 26 27 1.0 33 1.0
 27 28 1.0
 28 29 1.0 34 1.0
 29 30 1.0
 30
 31
 32
 33
 34
 35
 36
 37
 38
 39
 40
 41
 42
 43
 44
 45

