# freq=raman b3lyp/6-31+g(d,p) geom=connectivity

550 5000.com

0 1
O           9.02200         7.88100        11.02500
C           9.90400         7.60600        12.12300
C          10.02200         8.81000        13.04300
O          10.21700         9.96500        12.21400
H          10.17600         9.75700        11.23700
C          10.89800         8.62100        14.27200
O          11.10200         9.81500        15.04100
H          11.66300        10.41800        14.47300
C           9.04800         5.18300        12.62700
O           8.72600         4.05800        13.45800
H           8.45100         3.30100        12.86600
C           9.38800         6.58100        13.11900
O          10.37600         6.23600        14.10200
C          10.42400         7.36600        14.98600
O          11.20900         6.96900        16.12000
C          10.62300         7.05200        17.42700
C          10.09400         5.70600        17.89400
O           9.33800         4.85900        17.01600
H           9.73200         5.00000        16.10700
C           9.28700         5.99800        19.14800
O           8.37700         5.00100        19.63400
H           7.85100         4.61100        18.87800
C          12.25500         8.88700        18.21900
O          11.37000         9.99600        18.00800
H          10.95300         9.89200        17.10500
C          11.55900         7.56700        18.50900
O          10.82300         7.74100        19.72800
C          10.10300         6.62400        20.26800
O           9.37200         6.95600        21.45700

