# freq=raman b3lyp/6-31+g(d,p) geom=connectivity

550 6000.com

0 1
 O                  9.21400000    7.46500000   11.26000000
 C                 10.16700000    7.35700000   12.32700000
 C                 10.40600000    8.75300000   12.87800000
 O                 10.57600000    9.77500000   11.88500000
 H                 10.05300000    9.38700000   11.12600000
 C                 11.32600000    8.91500000   14.07700000
 O                 11.29000000   10.29100000   14.48400000
 H                 11.68400000   10.91600000   13.80900000
 C                  8.40100000    6.00900000   13.73700000
 O                  8.61000000    4.59500000   13.86100000
 H                  9.17500000    4.30100000   13.09000000
 C                  9.69700000    6.80000000   13.66100000
 O                 10.76500000    6.67400000   14.61100000
 C                 10.73600000    8.00600000   15.14300000
 O                 11.33600000    8.02300000   16.44600000
 C                 10.51700000    8.06400000   17.62400000
 C                  9.77000000    6.76200000   17.86300000
 O                  8.66400000    6.71000000   16.95100000
 H                  7.94600000    6.05200000   17.17900000
 C                  9.03700000    6.58000000   19.18200000
 O                  8.42600000    5.31700000   19.48500000
 H                  7.76100000    5.52600000   20.20100000
 C                 11.55900000    9.91600000   18.74500000
 O                 10.60300000   10.84200000   19.28100000
 H                 10.11600000   11.32000000   18.55000000
 C                 11.32300000    8.41900000   18.86300000
 O                 10.82500000    8.08300000   20.16700000
 C                 10.05300000    6.87800000   20.27300000
 O                  9.37700000    7.10900000   21.51800000
 H                  9.67800848    7.54963293   10.42385802
 H                  7.84051959    6.34870429   14.58279117
 H                  7.83238409    6.19554518   12.84999558
 H                  9.29078608    7.70987326   14.05089859
 H                 11.08106476    6.90253066   12.00630818
 H                  9.45032631    8.99413760   13.29446183
 H                 12.32380945    8.61601799   13.83228372
 H                  9.70929624    8.28213799   15.26352886
 H                 10.02473589    7.23825916   22.21465651
 H                 10.71356790    6.04287406   20.37842628
 H                  8.27319502    7.32763339   19.23246068
 H                 10.42162221    5.93092167   17.69096133
 H                  9.78717667    8.83345853   17.48190327
 H                 12.27433725    7.93950857   18.76327334
 H                 11.66298626   10.13768560   17.70339434
 H                 12.49775581   10.12515207   19.21392745

 1 2 1.0 30 1.0
 2 3 1.0 12 1.0 34 1.0
 3 4 1.0 6 1.0 35 1.0
 4 5 1.0
 5
 6 7 1.0 14 1.0 36 1.0
 7 8 1.0
 8
 9 10 1.0 12 1.0 31 1.0 32 1.0
 10 11 1.0
 11
 12 13 1.0 33 1.0
 13 14 1.0
 14 15 1.0 37 1.0
 15 16 1.0
 16 17 1.0 26 1.0 42 1.0
 17 18 1.0 20 1.0 41 1.0
 18 19 1.0
 19
 20 21 1.0 28 1.0 40 1.0
 21 22 1.0
 22
 23 24 1.0 26 1.0 44 1.0 45 1.0
 24 25 1.0
 25
 26 27 1.0 43 1.0
 27 28 1.0
 28 29 1.0 39 1.0
 29 38 1.0
 30
 31
 32
 33
 34
 35
 36
 37
 38
 39
 40
 41
 42
 43
 44
 45

