# freq=raman b3lyp/6-31+g(d,p) geom=connectivity

550 6000.com

0 1
O           9.21400         7.46500        11.26000
C          10.16700         7.35700        12.32700
C          10.40600         8.75300        12.87800
O          10.57600         9.77500        11.88500
H          10.05300         9.38700        11.12600
C          11.32600         8.91500        14.07700
O          11.29000        10.29100        14.48400
H          11.68400        10.91600        13.80900
C           8.40100         6.00900        13.73700
O           8.61000         4.59500        13.86100
H           9.17500         4.30100        13.09000
C           9.69700         6.80000        13.66100
O          10.76500         6.67400        14.61100
C          10.73600         8.00600        15.14300
O          11.33600         8.02300        16.44600
C          10.51700         8.06400        17.62400
C           9.77000         6.76200        17.86300
O           8.66400         6.71000        16.95100
H           7.94600         6.05200        17.17900
C           9.03700         6.58000        19.18200
O           8.42600         5.31700        19.48500
H           7.76100         5.52600        20.20100
C          11.55900         9.91600        18.74500
O          10.60300        10.84200        19.28100
H          10.11600        11.32000        18.55000
C          11.32300         8.41900        18.86300
O          10.82500         8.08300        20.16700
C          10.05300         6.87800        20.27300
O           9.37700         7.10900        21.51800

