# freq=raman b3lyp/6-31+g(d,p) geom=connectivity

550 9000.com

0 1
O           9.50300         7.57000        12.08800
C          10.19600         7.46800        13.34000
C          10.54400         8.83600        13.90400
O          11.32900         9.54600        12.93500
H          10.94600         9.36200        12.03000
C          11.25100         8.77400        15.24900
O          11.48000        10.04500        15.87400
H          11.81400        10.52100        15.06000
C           8.51400         5.57500        14.11200
O           9.25300         4.61600        13.34200
H           9.25400         4.86200        12.37300
C           9.30100         6.84400        14.39900
O          10.19200         6.53600        15.48100
C          10.39100         7.82800        16.07100
O          11.01000         7.43000        17.30400
C          10.13500         7.69200        18.41100
C           9.61000         6.34400        18.87700
O           8.83300         5.65100        17.88900
H           9.34800         5.37600        17.07800
C           8.92700         6.35200        20.23500
O           8.44900         5.08800        20.71500
H           7.84400         4.59400        20.09000
C          11.74300         9.57000        19.04900
O          11.18800        10.85300        18.72400
H          11.30500        10.80900        17.73200
C          10.94200         8.36300        19.51000
O          10.22000         8.36000        20.75000
C           9.85900         7.05000        21.21200
O           9.14100         7.24500        22.44000

