# freq=raman b3lyp/6-31+g(2d,p) geom=connectivity

423 9394/9394.com

0 1
O           7.86900         7.51900        12.18400
C           8.34800         7.91100        13.47800
C           7.84900         9.28000        13.91100
O           8.17400        10.33800        12.99700
H           7.85000        10.01400        12.10800
C           8.35600         9.60000        15.30700
O           7.75700        10.81200        15.78700
H           8.17200        11.01200        16.67500
C           8.64400         5.49900        14.15700
O           8.10000         4.84600        13.00100
H           8.16800         3.85000        13.05000
C           8.01300         6.83800        14.50200
O           8.49100         7.16300        15.81500
C           8.01900         8.44900        16.24100
O           8.69400         8.69400        17.48300
C           8.10200         8.30000        18.72900
C           8.67400         7.00300        19.27700
O           8.32400         5.94500        18.37300
H           8.71000         6.06400        17.45800
C           8.18600         6.74800        20.69500
O           8.91400         5.70300        21.35500
H           8.61900         5.50700        22.29100
C           7.68400        10.79700        19.45700
O           8.22400        11.44800        18.29700
H           8.20900        12.42300        18.51800
C           8.26200         9.42100        19.74300
O           7.60100         9.10000        20.97600
C           8.29900         7.99200        21.56200
O           7.50400         7.81200        22.74300

