# freq=raman b3lyp/6-31+g(2d,p) geom=connectivity

423 9394/9394.com

0 1
 O                  7.86900000    7.51900000   12.18400000
 C                  8.34800000    7.91100000   13.47800000
 C                  7.84900000    9.28000000   13.91100000
 O                  8.17400000   10.33800000   12.99700000
 H                  7.85000000   10.01400000   12.10800000
 C                  8.35600000    9.60000000   15.30700000
 O                  7.75700000   10.81200000   15.78700000
 H                  8.17200000   11.01200000   16.67500000
 C                  8.64400000    5.49900000   14.15700000
 O                  8.10000000    4.84600000   13.00100000
 H                  8.16800000    3.85000000   13.05000000
 C                  8.01300000    6.83800000   14.50200000
 O                  8.49100000    7.16300000   15.81500000
 C                  8.01900000    8.44900000   16.24100000
 O                  8.69400000    8.69400000   17.48300000
 C                  8.10200000    8.30000000   18.72900000
 C                  8.67400000    7.00300000   19.27700000
 O                  8.32400000    5.94500000   18.37300000
 H                  8.71000000    6.06400000   17.45800000
 C                  8.18600000    6.74800000   20.69500000
 O                  8.91400000    5.70300000   21.35500000
 H                  8.61900000    5.50700000   22.29100000
 C                  7.68400000   10.79700000   19.45700000
 O                  8.22400000   11.44800000   18.29700000
 H                  8.20900000   12.42300000   18.51800000
 C                  8.26200000    9.42100000   19.74300000
 O                  7.60100000    9.10000000   20.97600000
 C                  8.29900000    7.99200000   21.56200000
 O                  7.50400000    7.81200000   22.74300000
 H                  8.08021680    7.69630749   23.50207143
 H                  7.86285120   11.42107713   20.30755275
 H                  6.62666525   10.69783364   19.32619764
 H                  9.30671755    9.53589801   19.94365812
 H                  7.05521853    8.15278127   18.56324357
 H                  9.74040693    7.08780530   19.29900739
 H                  7.15581581    6.46256614   20.64865297
 H                  9.31451564    8.23470155   21.79593151
 H                  8.61528174    7.34392172   11.60606301
 H                  8.52660131    4.84662848   14.99695771
 H                  9.69012253    5.65343684   13.99366930
 H                  6.95034580    6.71909539   14.54108638
 H                  9.41466831    7.96876448   13.41650217
 H                  6.78175275    9.22540693   13.96487862
 H                  9.41825794    9.72406901   15.27360918
 H                  6.96220720    8.41168460   16.40439075

 1 2 1.0 38 1.0
 2 3 1.0 12 1.0 42 1.0
 3 4 1.0 6 1.0 43 1.0
 4 5 1.0
 5
 6 7 1.0 14 1.0 44 1.0
 7 8 1.0
 8
 9 10 1.0 12 1.0 39 1.0 40 1.0
 10 11 1.0
 11
 12 13 1.0 41 1.0
 13 14 1.0
 14 15 1.0 45 1.0
 15 16 1.0
 16 17 1.0 26 1.0 34 1.0
 17 18 1.0 20 1.0 35 1.0
 18 19 1.0
 19
 20 21 1.0 28 1.0 36 1.0
 21 22 1.0
 22
 23 24 1.0 26 1.0 31 1.0 32 1.0
 24 25 1.0
 25
 26 27 1.0 33 1.0
 27 28 1.0
 28 29 1.0 37 1.0
 29 30 1.0
 30
 31
 32
 33
 34
 35
 36
 37
 38
 39
 40
 41
 42
 43
 44
 45

