# freq=raman b3lyp/6-31+g(2d,p) geom=connectivity

450 5905/5905.com

0 1
O          10.18300         7.49000        11.55300
C          10.86400         7.72200        12.79500
C          11.20000         9.12900        13.26300
O          11.86800         9.91500        12.26500
H          11.79200         9.52000        11.35000
C          11.98200         9.28900        14.55600
O          11.99400        10.57100        15.20200
H          12.68200        11.15700        14.77400
C          10.46000         5.44800        13.49100
O           9.70900         4.51100        14.27600
H           9.94800         3.59300        13.96200
C          10.34900         6.89000        13.95800
O          11.19100         7.16800        15.08600
C          11.20800         8.50600        15.60400
O          11.98400         8.11000        16.74500
C          11.23800         8.30900        17.95400
C          10.78200         6.97000        18.51100
O          10.02000         6.20100        17.56900
H          10.45900         6.23300        16.67100
C          10.07900         7.06000        19.85500
O           9.47700         5.84900        20.33300
H           8.70000         5.65800        19.73300
C          12.76400        10.23300        18.66100
O          11.87400        11.29700        19.02900
H          12.30700        12.02300        18.49400
C          12.13300         8.90100        19.03100
O          11.63600         8.94400        20.37600
C          11.12700         7.66300        20.77600
O          10.54200         7.83700        22.07500

