# freq=raman b3lyp/6-31+g(d,p) geom=connectivity

500 5000.com

0 1
 O                  8.77300000    6.75400000   22.71000000
 C                  9.55900000    6.91000000   23.90000000
 C                  9.38100000    8.27600000   24.54200000
 O                  9.80100000    9.26800000   23.59400000
 H                  9.45800000    8.95800000   22.70700000
 C                 10.27200000    8.39100000   25.76800000
 O                 10.28600000    9.73800000   26.26300000
 H                  9.95500000   10.36400000   25.55700000
 C                  9.23300000    4.47600000   24.32000000
 O                  9.14100000    3.53500000   25.39900000
 H                  9.52600000    2.77400000   24.87700000
 C                  8.98300000    5.87700000   24.85400000
 O                  9.82000000    6.03000000   26.01000000
 C                  9.72700000    7.29900000   26.67300000
 O                 10.51900000    7.15700000   27.86200000
 C                  9.69600000    6.64900000   28.92200000
 C                  9.57100000    5.17300000   29.25900000
 O                  8.64500000    4.65100000   28.29500000
 H                  8.98100000    4.70700000   27.35400000
 C                  9.06600000    4.77700000   30.63700000
 O                  9.40200000    3.39900000   30.85300000
 H                  8.80900000    2.84300000   30.27000000
 C                 10.27000000    8.90500000   30.14600000
 O                 11.06100000    9.74200000   31.00200000
 H                 10.82300000   10.61200000   30.57000000
 C                 10.32700000    7.38700000   30.09100000
 O                  9.55400000    7.04300000   31.25000000
 C                  9.67300000    5.68400000   31.69500000
 O                  9.00300000    5.40800000   32.93400000
 H                  9.65406687    5.25460532   33.62260874
 H                 10.71045704    5.44513124   31.80235271
 H                  8.00141471    4.88205163   30.65985436
 H                 10.52256065    4.70933023   29.10265846
 H                  8.70752444    7.03345734   28.78054816
 H                 11.33708171    7.05909403   30.22181519
 H                  9.25061872    9.15095469   30.35876299
 H                 10.46528608    9.24040145   29.14886951
 H                  9.35485489    6.65475044   21.95290396
 H                 10.20990249    4.42790895   23.88612354
 H                  8.49992054    4.24060645   23.57697619
 H                  7.95107548    6.05492074   25.07394543
 H                 10.59189941    6.71130893   23.70368225
 H                  8.35684455    8.42961673   24.81108643
 H                  8.70935841    7.50639298   26.93047570
 H                 11.27020312    8.12757252   25.48675903

 1 2 1.0 38 1.0
 2 3 1.0 12 1.0 42 1.0
 3 4 1.0 6 1.0 43 1.0
 4 5 1.0
 5
 6 7 1.0 14 1.0 45 1.0
 7 8 1.0
 8
 9 10 1.0 12 1.0 39 1.0 40 1.0
 10 11 1.0
 11
 12 13 1.0 41 1.0
 13 14 1.0
 14 15 1.0 44 1.0
 15 16 1.0
 16 17 1.0 26 1.0 34 1.0
 17 18 1.0 20 1.0 33 1.0
 18 19 1.0
 19
 20 21 1.0 28 1.0 32 1.0
 21 22 1.0
 22
 23 24 1.0 26 1.0 36 1.0 37 1.0
 24 25 1.0
 25
 26 27 1.0 35 1.0
 27 28 1.0
 28 29 1.0 31 1.0
 29 30 1.0
 30
 31
 32
 33
 34
 35
 36
 37
 38
 39
 40
 41
 42
 43
 44
 45

