# freq=raman b3lyp/6-31+g(d,p) geom=connectivity

280 5000.com

0 1
 O                  7.57300000    7.78500000   22.78500000
 C                  8.20200000    8.11000000   24.03300000
 C                  7.51200000    9.37400000   24.52100000
 O                  7.71100000   10.42100000   23.56100000
 H                  7.65800000   10.00100000   22.65500000
 C                  7.83300000    9.72200000   25.96500000
 O                  7.00300000   10.81500000   26.38600000
 H                  7.36000000   11.28200000   27.19600000
 C                  8.52700000    5.68700000   24.82100000
 O                  8.23500000    4.92500000   23.64100000
 H                  8.10600000    3.96000000   23.87200000
 C                  7.86500000    7.03600000   25.05500000
 O                  8.22600000    7.37900000   26.40100000
 C                  7.60400000    8.56300000   26.92100000
 O                  8.42300000    8.68500000   28.09300000
 C                  7.82900000    8.35100000   29.35600000
 C                  8.45300000    7.08300000   29.91700000
 O                  8.23800000    6.09700000   28.89700000
 H                  8.47900000    6.45800000   27.99700000
 C                  7.89000000    6.71200000   31.27900000
 O                  8.60200000    5.54500000   31.71500000
 H                  8.22900000    5.25800000   32.59700000
 C                  7.61300000   10.95900000   30.04500000
 O                  7.98300000   11.71700000   28.88400000
 H                  8.24800000   12.65500000   29.10600000
 C                  8.04700000    9.52500000   30.29700000
 O                  7.34400000    9.08300000   31.46800000
 C                  7.98100000    7.97500000   32.12000000
 O                  7.27100000    7.81500000   33.35700000
 H                  8.24621308    7.61252685   22.12270311
 H                  7.89928597    7.72189056   34.07685233
 H                  7.94527566   11.52495657   30.89009529
 H                  6.54335527   10.95698713   30.07249721
 H                  9.09028289    9.55011794   30.53328352
 H                  6.77864669    8.19719683   29.22182659
 H                  9.50644375    7.24011607   30.01932697
 H                  6.85765334    6.45544829   31.16349414
 H                  9.00644700    8.20890324   32.31659022
 H                  8.28591287    5.06939828   25.66084827
 H                  9.58444433    5.84978563   24.83557170
 H                  6.80564476    6.88768295   25.02914419
 H                  9.25794494    8.24658132   23.92704801
 H                  6.46377721    9.15992551   24.50364788
 H                  8.85794548   10.02285311   26.02724280
 H                  6.57110867    8.41234359   27.15624060

 1 2 1.0 30 1.0
 2 3 1.0 12 1.0 42 1.0
 3 4 1.0 6 1.0 43 1.0
 4 5 1.0
 5
 6 7 1.0 14 1.0 44 1.0
 7 8 1.0
 8
 9 10 1.0 12 1.0 39 1.0 40 1.0
 10 11 1.0
 11
 12 13 1.0 41 1.0
 13 14 1.0
 14 15 1.0 45 1.0
 15 16 1.0
 16 17 1.0 26 1.0 35 1.0
 17 18 1.0 20 1.0 36 1.0
 18 19 1.0
 19
 20 21 1.0 28 1.0 37 1.0
 21 22 1.0
 22
 23 24 1.0 26 1.0 32 1.0 33 1.0
 24 25 1.0
 25
 26 27 1.0 34 1.0
 27 28 1.0
 28 29 1.0 38 1.0
 29 31 1.0
 30
 31
 32
 33
 34
 35
 36
 37
 38
 39
 40
 41
 42
 43
 44
 45

