# freq=raman b3lyp/6-31+g(d,p) geom=connectivity

500 7000.com

0 1
O           8.92200         7.24600        12.28800
C           9.74100         7.37200        13.45900
C           9.53200         8.76200        14.03600
O           9.75900         9.87000        13.15200
H           9.12300         9.67400        12.40600
C          10.23200         8.88900        15.37900
O           9.90200        10.07400        16.11800
H           9.66900        10.75900        15.42700
C           9.87800         4.89600        14.03900
O           9.66900         3.77300        14.90800
H           9.65300         2.91100        14.40100
C           9.25700         6.24600        14.35800
O           9.89000         6.49000        15.62300
C           9.84600         7.75000        16.30800
O          10.78100         7.65500        17.39300
C          10.16300         7.08200        18.55400
C          10.17400         5.58300        18.81000
O           9.43200         4.90100        17.78800
H           9.78300         5.04700        16.86400
C           9.44700         5.31700        20.11700
O           8.64200         4.14800        20.33200
H           8.25100         3.95700        19.43200
C          10.83200         9.22400        19.69300
O          11.42600        10.18200        20.58100
H          11.48500        11.09500        20.17900
C          10.78500         7.70800        19.79200
O          10.18900         7.27100        21.02200
C          10.31800         5.85800        21.23900
O           9.60900         5.69300        22.47600

