# freq=raman b3lyp/6-31+g(d,p) geom=connectivity

500 8000.com

0 1
O           8.68000         6.96700        12.08600
C           9.36500         7.30800        13.30000
C           8.94300         8.62500        13.93100
O           9.39300         9.66100        13.04600
H           9.01200         9.43400        12.15000
C           9.63200         8.94200        15.24800
O           9.04100        10.05400        15.93700
H           9.57400        10.87500        15.73200
C           9.21800         4.78900        13.93800
O           8.79900         3.71400        14.79200
H           9.02900         2.80300        14.44900
C           8.98900         6.24300        14.31600
O           9.64500         6.47600        15.57100
C           9.38800         7.75600        16.16700
O          10.19300         7.83100        17.35200
C           9.51000         7.27900        18.48700
C           9.55800         5.76800        18.64300
O           8.75600         5.13600        17.63400
H           9.16200         5.44500        16.77400
C           8.93800         5.48400        20.00100
O           8.93900         4.12600        20.46400
H           8.19400         3.64000        20.00600
C          10.03600         9.53500        19.55900
O          10.70600        10.15900        20.66300
H          10.64700        11.15700        20.62500
C          10.15600         8.02200        19.64500
O           9.69500         7.61200        20.94000
C           9.68000         6.18900        21.12500
O           8.81900         6.03300        22.26300

