# freq=raman b3lyp/6-31+g(d,p) geom=connectivity

500 8000.com

0 1
 O                  8.68000000    6.96700000   12.08600000
 C                  9.36500000    7.30800000   13.30000000
 C                  8.94300000    8.62500000   13.93100000
 O                  9.39300000    9.66100000   13.04600000
 H                  9.01200000    9.43400000   12.15000000
 C                  9.63200000    8.94200000   15.24800000
 O                  9.04100000   10.05400000   15.93700000
 H                  9.57400000   10.87500000   15.73200000
 C                  9.21800000    4.78900000   13.93800000
 O                  8.79900000    3.71400000   14.79200000
 H                  9.02900000    2.80300000   14.44900000
 C                  8.98900000    6.24300000   14.31600000
 O                  9.64500000    6.47600000   15.57100000
 C                  9.38800000    7.75600000   16.16700000
 O                 10.19300000    7.83100000   17.35200000
 C                  9.51000000    7.27900000   18.48700000
 C                  9.55800000    5.76800000   18.64300000
 O                  8.75600000    5.13600000   17.63400000
 H                  9.16200000    5.44500000   16.77400000
 C                  8.93800000    5.48400000   20.00100000
 O                  8.93900000    4.12600000   20.46400000
 H                  8.19400000    3.64000000   20.00600000
 C                 10.03600000    9.53500000   19.55900000
 O                 10.70600000   10.15900000   20.66300000
 H                 10.64700000   11.15700000   20.62500000
 C                 10.15600000    8.02200000   19.64500000
 O                  9.69500000    7.61200000   20.94000000
 C                  9.68000000    6.18900000   21.12500000
 O                  8.81900000    6.03300000   22.26300000
 H                  9.35129197    5.92449737   23.05451276
 H                 10.65587728    5.78425831   21.29455150
 H                  7.92754326    5.83574630   19.98868287
 H                 10.56696405    5.41382393   18.60490992
 H                  8.48259400    7.57294249   18.43282681
 H                 11.20083116    7.79468475   19.60555872
 H                 10.47583511    9.87201704   18.64365056
 H                  9.00152974    9.80799994   19.57456656
 H                  9.32257413    6.77412519   11.39934303
 H                 10.27056403    4.67102016   13.78604695
 H                  8.74126252    4.63651575   12.99228867
 H                  7.93898783    6.34994552   14.49188945
 H                 10.42269521    7.30143014   13.13832848
 H                  7.87969533    8.66504936   14.04360209
 H                 10.68038086    9.09835516   15.10188141
 H                  8.36051732    7.77920861   16.46472587

 1 2 1.0 38 1.0
 2 3 1.0 12 1.0 42 1.0
 3 4 1.0 6 1.0 43 1.0
 4 5 1.0
 5
 6 7 1.0 14 1.0 44 1.0
 7 8 1.0
 8
 9 10 1.0 12 1.0 39 1.0 40 1.0
 10 11 1.0
 11
 12 13 1.0 41 1.0
 13 14 1.0
 14 15 1.0 45 1.0
 15 16 1.0
 16 17 1.0 26 1.0 34 1.0
 17 18 1.0 20 1.0 33 1.0
 18 19 1.0
 19
 20 21 1.0 28 1.0 32 1.0
 21 22 1.0
 22
 23 24 1.0 26 1.0 36 1.0 37 1.0
 24 25 1.0
 25
 26 27 1.0 35 1.0
 27 28 1.0
 28 29 1.0 31 1.0
 29 30 1.0
 30
 31
 32
 33
 34
 35
 36
 37
 38
 39
 40
 41
 42
 43
 44
 45

