# freq=raman b3lyp/6-31+g(2d,p) geom=connectivity

310 8695/8695.com

0 1
O           7.84400         7.59100        12.32400
C           8.37500         7.96100        13.60500
C           7.83000         9.30100        14.06900
O           8.16400        10.36500        13.16700
H           8.06700         9.92200        12.27600
C           8.19200         9.70500        15.48900
O           7.43500        10.82300        15.97400
H           7.95600        11.16600        16.75500
C           8.86500         5.74600        14.38700
O           8.32800         4.87300        13.38300
H           8.66300         3.93200        13.42200
C           8.01100         6.96600        14.69500
O           8.36500         7.24300        16.05700
C           7.89400         8.54700        16.42800
O           8.69700         8.72200        17.60400
C           8.06700         8.28600        18.81800
C           8.81300         7.06600        19.33200
O           8.77500         6.00600        18.36500
H           8.67300         6.46600        17.48300
C           8.25700         6.65600        20.68500
O           8.91400         5.45200        21.10700
H           8.65800         5.30200        22.06200
C           7.79700        10.71600        19.63400
O           8.40400        11.37600        18.51400
H           8.40600        12.36000        18.69100
C           8.30900         9.31300        19.91300
O           7.79300         8.96400        21.20600
C           8.41800         7.77200        21.70400
O           7.67700         7.53600        22.91000

