# freq=raman b3lyp/6-31+g(2d,p) geom=connectivity

310 8695/8695.com

0 1
 O                  7.84400000    7.59100000   12.32400000
 C                  8.37500000    7.96100000   13.60500000
 C                  7.83000000    9.30100000   14.06900000
 O                  8.16400000   10.36500000   13.16700000
 H                  8.06700000    9.92200000   12.27600000
 C                  8.19200000    9.70500000   15.48900000
 O                  7.43500000   10.82300000   15.97400000
 H                  7.95600000   11.16600000   16.75500000
 C                  8.86500000    5.74600000   14.38700000
 O                  8.32800000    4.87300000   13.38300000
 H                  8.66300000    3.93200000   13.42200000
 C                  8.01100000    6.96600000   14.69500000
 O                  8.36500000    7.24300000   16.05700000
 C                  7.89400000    8.54700000   16.42800000
 O                  8.69700000    8.72200000   17.60400000
 C                  8.06700000    8.28600000   18.81800000
 C                  8.81300000    7.06600000   19.33200000
 O                  8.77500000    6.00600000   18.36500000
 H                  8.67300000    6.46600000   17.48300000
 C                  8.25700000    6.65600000   20.68500000
 O                  8.91400000    5.45200000   21.10700000
 H                  8.65800000    5.30200000   22.06200000
 C                  7.79700000   10.71600000   19.63400000
 O                  8.40400000   11.37600000   18.51400000
 H                  8.40600000   12.36000000   18.69100000
 C                  8.30900000    9.31300000   19.91300000
 O                  7.79300000    8.96400000   21.20600000
 C                  8.41800000    7.77200000   21.70400000
 O                  7.67700000    7.53600000   22.91000000
 H                  8.56647634    7.41557934   11.71666522
 H                  8.98937507    5.18513906   15.28969920
 H                  9.82747073    6.08181049   14.06175944
 H                  6.97372879    6.71173084   14.62930657
 H                  9.44073811    8.02460597   13.53389047
 H                  6.76398820    9.21138918   14.04689252
 H                  9.23531212    9.93800002   15.53494367
 H                  6.85504265    8.51811292   16.68223053
 H                  8.28684849    7.39361592   23.63760676
 H                  9.45123329    7.94709084   21.92003741
 H                  7.21308066    6.44967224   20.57292295
 H                  9.83699739    7.34354865   19.47091038
 H                  7.02465042    8.08696137   18.68091979
 H                  9.37076941    9.39184624   20.01943773
 H                  7.96324846   11.31342658   20.50597645
 H                  6.74282096   10.65994336   19.45946001

 1 2 1.0 30 1.0
 2 3 1.0 12 1.0 34 1.0
 3 4 1.0 6 1.0 35 1.0
 4 5 1.0
 5
 6 7 1.0 14 1.0 36 1.0
 7 8 1.0
 8
 9 10 1.0 12 1.0 31 1.0 32 1.0
 10 11 1.0
 11
 12 13 1.0 33 1.0
 13 14 1.0
 14 15 1.0 37 1.0
 15 16 1.0
 16 17 1.0 26 1.0 42 1.0
 17 18 1.0 20 1.0 41 1.0
 18 19 1.0
 19
 20 21 1.0 28 1.0 40 1.0
 21 22 1.0
 22
 23 24 1.0 26 1.0 44 1.0 45 1.0
 24 25 1.0
 25
 26 27 1.0 43 1.0
 27 28 1.0
 28 29 1.0 39 1.0
 29 38 1.0
 30
 31
 32
 33
 34
 35
 36
 37
 38
 39
 40
 41
 42
 43
 44
 45

