# freq=raman b3lyp/6-31+g(d,p) geom=connectivity

320 7000.com

0 1
 O                  7.36100000    7.83100000   22.89000000
 C                  8.04000000    8.02100000   24.14000000
 C                  7.63100000    9.38400000   24.67400000
 O                  7.88200000   10.32500000   23.61900000
 H                  7.34600000    9.94400000   22.86600000
 C                  8.19500000    9.62000000   26.06500000
 O                  7.55800000   10.74000000   26.69700000
 H                  8.20600000   11.21800000   27.28900000
 C                  8.21700000    5.55500000   24.78800000
 O                  7.90700000    4.92000000   23.53900000
 H                  8.19900000    3.96600000   23.47700000
 C                  7.64000000    6.92400000   25.11300000
 O                  8.21900000    7.12300000   26.41100000
 C                  8.02700000    8.42300000   26.98600000
 O                  8.97200000    8.55400000   28.05900000
 C                  8.47500000    8.30200000   29.38100000
 C                  8.91800000    6.93100000   29.86700000
 O                  8.72600000    5.95800000   28.83000000
 H                  8.73400000    6.42200000   27.94400000
 C                  8.45700000    6.49700000   31.24900000
 O                  9.21600000    5.36400000   31.69700000
 H                  8.93200000    4.98200000   32.57700000
 C                  8.51100000   10.59500000   30.24100000
 O                  8.69100000   11.51500000   29.15500000
 H                  8.45300000   12.45200000   29.41100000
 C                  9.01300000    9.18300000   30.49700000
 O                  8.43500000    8.92600000   31.78500000
 C                  8.80600000    7.61100000   32.22200000
 O                  7.99200000    7.34000000   33.37300000
 H                  8.55608033    7.16197312   34.12912156
 H                  8.00698759    7.72428433   22.18792322
 H                  9.84395669    7.57661287   32.47961102
 H                  7.40746655    6.28904528   31.26059162
 H                  9.98051414    7.01439647   29.96191433
 H                  7.40605676    8.34906788   29.37429467
 H                 10.08186870    9.15489240   30.53736908
 H                  8.85183606   11.14262195   31.09472184
 H                  7.44790486   10.50307387   30.32023579
 H                  7.90693470    4.88910047   25.56603427
 H                  9.28217852    5.64044893   24.84271013
 H                  6.57428587    6.86667862   25.18960056
 H                  9.09822225    7.99702378   23.98350460
 H                  6.56807741    9.35361652   24.79304790
 H                  9.23977935    9.83211851   25.97366626
 H                  7.04163140    8.45989586   27.40143642

 1 2 1.0 31 1.0
 2 3 1.0 12 1.0 42 1.0
 3 4 1.0 6 1.0 43 1.0
 4 5 1.0
 5
 6 7 1.0 14 1.0 44 1.0
 7 8 1.0
 8
 9 10 1.0 12 1.0 39 1.0 40 1.0
 10 11 1.0
 11
 12 13 1.0 41 1.0
 13 14 1.0
 14 15 1.0 45 1.0
 15 16 1.0
 16 17 1.0 26 1.0 35 1.0
 17 18 1.0 20 1.0 34 1.0
 18 19 1.0
 19
 20 21 1.0 28 1.0 33 1.0
 21 22 1.0
 22
 23 24 1.0 26 1.0 37 1.0 38 1.0
 24 25 1.0
 25
 26 27 1.0 36 1.0
 27 28 1.0
 28 29 1.0 32 1.0
 29 30 1.0
 30
 31
 32
 33
 34
 35
 36
 37
 38
 39
 40
 41
 42
 43
 44
 45

