# freq=raman b3lyp/6-31+g(2d,p) geom=connectivity

290 5308/5308.com

0 1
O           7.61100         7.52900        12.30600
C           8.30300         7.85200        13.52000
C           7.72600         9.19100        13.95100
O           7.78400        10.20000        12.93200
H           7.46300         9.73800        12.10500
C           8.25600         9.61200        15.31200
O           7.75800        10.84600        15.85100
H           8.21500        10.90600        16.73800
C           8.62600         5.47400        14.20400
O           8.09800         4.73500        13.09300
H           8.29700         3.76200        13.21300
C           8.09500         6.83300        14.62900
O           8.85800         7.26400        15.76500
C           8.15100         8.41600        16.24400
O           8.78500         8.59200        17.52000
C           7.97000         8.27900        18.65900
C           8.45700         6.93700        19.18200
O           8.23600         5.94200        18.17200
H           8.56700         6.32700        17.31000
C           7.78900         6.45700        20.46000
O           8.40200         5.27600        20.99800
H           8.01800         5.11500        21.90700
C           7.63400        10.73500        19.49400
O           8.14700        11.48400        18.38300
H           8.01300        12.44800        18.60900
C           8.12600         9.32000        19.75500
O           7.43300         8.87400        20.93000
C           7.95100         7.62700        21.41700
O           7.27100         7.59700        22.68100

