# freq=raman b3lyp/6-31+g(2d,p) geom=connectivity

473 5000/5000.com

0 1
 O                  7.72400000    7.52100000   12.26800000
 C                  8.25200000    7.99000000   13.51700000
 C                  7.66100000    9.27400000   14.07800000
 O                  7.88100000   10.32700000   13.12900000
 H                  7.94100000    9.92900000   12.21300000
 C                  8.08400000    9.65500000   15.48700000
 O                  7.39400000   10.77200000   16.06700000
 H                  7.92400000   11.16200000   16.82000000
 C                  8.80500000    5.59800000   14.14900000
 O                  8.15100000    4.81400000   13.14100000
 H                  8.12800000    3.83700000   13.35300000
 C                  8.07700000    6.87500000   14.53600000
 O                  8.54200000    7.25500000   15.83900000
 C                  7.87300000    8.41900000   16.34700000
 O                  8.62700000    8.63200000   17.54900000
 C                  8.18400000    8.26800000   18.86500000
 C                  8.82900000    6.97500000   19.33700000
 O                  8.65300000    5.98700000   18.31100000
 H                  8.96800000    6.37300000   17.44400000
 C                  8.29900000    6.58100000   20.70700000
 O                  8.73500000    5.35500000   21.31100000
 H                  8.30300000    5.27600000   22.20900000
 C                  8.03300000   10.74800000   19.54500000
 O                  8.65800000   11.37400000   18.41500000
 H                  8.65000000   12.34300000   18.66400000
 C                  8.57600000    9.36100000   19.84500000
 O                  8.00800000    9.01000000   21.11600000
 C                  8.56900000    7.78100000   21.60000000
 O                  7.87800000    7.47500000   22.82000000
 H                  8.51718929    7.30074405   23.51474593
 H                  9.61819517    7.88932946   21.77987281
 H                  7.23631885    6.50373043   20.60882576
 H                  9.87927371    7.15341578   19.43696468
 H                  7.11993565    8.15545592   18.86405699
 H                  9.64194323    9.40318388   19.92797916
 H                  8.18196042   11.36711751   20.40488622
 H                  6.98270454   10.67070220   19.35577922
 H                  8.44783102    7.29931916   11.67763887
 H                  8.91633374    4.99468451   15.02564999
 H                  9.77920040    5.86028235   13.79257112
 H                  7.03267440    6.65323699   14.60745074
 H                  9.30176829    8.14916345   13.38451027
 H                  6.60262093    9.12202234   14.11845407
 H                  9.12998805    9.87995657   15.47273294
 H                  6.83884570    8.23508653   16.55096254

 1 2 1.0 38 1.0
 2 3 1.0 12 1.0 42 1.0
 3 4 1.0 6 1.0 43 1.0
 4 5 1.0
 5
 6 7 1.0 14 1.0 44 1.0
 7 8 1.0
 8
 9 10 1.0 12 1.0 39 1.0 40 1.0
 10 11 1.0
 11
 12 13 1.0 41 1.0
 13 14 1.0
 14 15 1.0 45 1.0
 15 16 1.0
 16 17 1.0 26 1.0 34 1.0
 17 18 1.0 20 1.0 33 1.0
 18 19 1.0
 19
 20 21 1.0 28 1.0 32 1.0
 21 22 1.0
 22
 23 24 1.0 26 1.0 36 1.0 37 1.0
 24 25 1.0
 25
 26 27 1.0 35 1.0
 27 28 1.0
 28 29 1.0 31 1.0
 29 30 1.0
 30
 31
 32
 33
 34
 35
 36
 37
 38
 39
 40
 41
 42
 43
 44
 45

