# freq=raman b3lyp/6-31+g(2d,p) geom=connectivity

473 5000/5000.com

0 1
O           7.72400         7.52100        12.26800
C           8.25200         7.99000        13.51700
C           7.66100         9.27400        14.07800
O           7.88100        10.32700        13.12900
H           7.94100         9.92900        12.21300
C           8.08400         9.65500        15.48700
O           7.39400        10.77200        16.06700
H           7.92400        11.16200        16.82000
C           8.80500         5.59800        14.14900
O           8.15100         4.81400        13.14100
H           8.12800         3.83700        13.35300
C           8.07700         6.87500        14.53600
O           8.54200         7.25500        15.83900
C           7.87300         8.41900        16.34700
O           8.62700         8.63200        17.54900
C           8.18400         8.26800        18.86500
C           8.82900         6.97500        19.33700
O           8.65300         5.98700        18.31100
H           8.96800         6.37300        17.44400
C           8.29900         6.58100        20.70700
O           8.73500         5.35500        21.31100
H           8.30300         5.27600        22.20900
C           8.03300        10.74800        19.54500
O           8.65800        11.37400        18.41500
H           8.65000        12.34300        18.66400
C           8.57600         9.36100        19.84500
O           8.00800         9.01000        21.11600
C           8.56900         7.78100        21.60000
O           7.87800         7.47500        22.82000

