# freq=raman b3lyp/6-31+g(2d,p) geom=connectivity

310 5229/5229.com

0 1
O           8.12700         7.51500        12.22600
C           8.52400         7.87200        13.55800
C           7.72600         9.12100        13.89400
O           7.90500        10.17500        12.93700
H           7.47400         9.78900        12.12200
C           8.27100         9.52000        15.25600
O           7.53400        10.62300        15.80200
H           7.93900        10.91600        16.66800
C           9.03900         5.40400        14.15700
O           8.59400         4.69200        12.99300
H           8.49000         3.72300        13.21600
C           8.27300         6.68000        14.46800
O           8.70900         7.17900        15.74000
C           8.11300         8.38100        16.25000
O           8.85100         8.77500        17.41500
C           8.25700         8.38200        18.66000
C           8.83100         7.10800        19.26000
O           8.60100         6.00300        18.37300
H           8.73600         6.34200        17.44200
C           8.24800         6.69800        20.60200
O           8.85400         5.56700        21.24600
H           8.34200         5.34800        22.07700
C           7.99200        10.81100        19.27000
O           8.48400        11.50200        18.11200
H           8.33600        12.48400        18.22900
C           8.59300         9.47200        19.66400
O           7.93800         9.17600        20.90700
C           8.28000         7.91800        21.50700
O           7.61800         7.76200        22.77000

