# freq=raman b3lyp/6-31+g(d,p) geom=connectivity

450 8000.com

0 1
 O                 10.58500000    7.70600000   11.43900000
 C                 11.46800000    7.56600000   12.56100000
 C                 11.83800000    8.94600000   13.08100000
 O                 12.85200000    9.65000000   12.34900000
 H                 12.67800000    9.47400000   11.38100000
 C                 12.03400000    9.19300000   14.56800000
 O                 11.62500000   10.49800000   15.00300000
 H                 11.74100000   11.22100000   14.32300000
 C                 10.68800000    5.32900000   13.14700000
 O                 10.30400000    4.30500000   14.07600000
 H                 10.14600000    3.44900000   13.58500000
 C                 10.84300000    6.74500000   13.67700000
 O                 11.61900000    6.70500000   14.88400000
 C                 11.58800000    8.02800000   15.43700000
 O                 12.24400000    7.92400000   16.70800000
 C                 11.42700000    7.95500000   17.88700000
 C                 10.89300000    6.63900000   18.42800000
 O                 10.05900000    6.00300000   17.44900000
 H                 10.56200000    6.03300000   16.58400000
 C                 10.06900000    6.91600000   19.67500000
 O                  9.31700000    5.72300000   19.94100000
 H                  8.59200000    5.52900000   19.28100000
 C                 12.79000000    9.97700000   18.63400000
 O                 11.98300000   11.12200000   18.32300000
 H                 12.11900000   11.35700000   17.36100000
 C                 12.27600000    8.58900000   18.97800000
 O                 11.61700000    8.75200000   20.24200000
 C                 11.04700000    7.50900000   20.67600000
 O                 10.35300000    7.88900000   21.87400000
 H                 10.99064372    8.10597891   22.55805456
 H                 11.82027386    6.80517263   20.90310037
 H                  9.36408308    7.68346205   19.43211292
 H                 11.71091465    5.99480002   18.67482385
 H                 10.59296104    8.59740775   17.69571147
 H                 13.12507618    7.95663577   19.13319383
 H                 13.44228026    9.84547029   17.79606779
 H                 13.40551747   10.27106369   19.45835720
 H                 11.10139215    7.80620303   10.63594427
 H                 11.62225238    5.04026880   12.71259605
 H                  9.95561908    5.35196026   12.36726221
 H                  9.87442794    7.14147098   13.89966328
 H                 12.35995792    7.07375578   12.23388124
 H                 10.95398111    9.50949963   12.86680670
 H                 13.09716385    9.20734318   14.68790372
 H                 10.55909610    8.22221149   15.65731493

 1 2 1.0 38 1.0
 2 3 1.0 12 1.0 42 1.0
 3 4 1.0 6 1.0 43 1.0
 4 5 1.0
 5
 6 7 1.0 14 1.0 44 1.0
 7 8 1.0
 8
 9 10 1.0 12 1.0 39 1.0 40 1.0
 10 11 1.0
 11
 12 13 1.0 41 1.0
 13 14 1.0
 14 15 1.0 45 1.0
 15 16 1.0
 16 17 1.0 26 1.0 34 1.0
 17 18 1.0 20 1.0 33 1.0
 18 19 1.0
 19
 20 21 1.0 28 1.0 32 1.0
 21 22 1.0
 22
 23 24 1.0 26 1.0 36 1.0 37 1.0
 24 25 1.0
 25
 26 27 1.0 35 1.0
 27 28 1.0
 28 29 1.0 31 1.0
 29 30 1.0
 30
 31
 32
 33
 34
 35
 36
 37
 38
 39
 40
 41
 42
 43
 44
 45

