# freq=raman b3lyp/6-31+g(2df,p) geom=connectivity

350 8000.com

0 1
 O                  7.88500000    7.61300000   12.24700000
 C                  8.47600000    8.00300000   13.49500000
 C                  7.95000000    9.34400000   13.97800000
 O                  7.89600000   10.33800000   12.94500000
 H                  7.77600000    9.87100000   12.07000000
 C                  8.39600000    9.81700000   15.35200000
 O                  7.55900000   10.82900000   15.93100000
 H                  7.85200000   11.11400000   16.84400000
 C                  8.58500000    5.50300000   14.30500000
 O                  8.05700000    4.80000000   13.17100000
 H                  8.32700000    3.84300000   13.27500000
 C                  8.10800000    6.93200000   14.50900000
 O                  8.59500000    7.41000000   15.77100000
 C                  8.15500000    8.66400000   16.31300000
 O                  8.98700000    8.82100000   17.47200000
 C                  8.34600000    8.47600000   18.70900000
 C                  9.02700000    7.24600000   19.28700000
 O                  8.60800000    6.12800000   18.49100000
 H                  8.60100000    6.36600000   17.51900000
 C                  8.52500000    6.83800000   20.66200000
 O                  9.28300000    5.72000000   21.14800000
 H                  8.96400000    5.32900000   22.01100000
 C                  8.04500000   10.93400000   19.34000000
 O                  8.57100000   11.63200000   18.20200000
 H                  8.46700000   12.61000000   18.38500000
 C                  8.56800000    9.56500000   19.74500000
 O                  8.09500000    9.25000000   21.06200000
 C                  8.61500000    8.02700000   21.60500000
 O                  7.81800000    7.79600000   22.77500000
 H                  8.39271568    7.64705465   23.52939855
 H                  8.57795647    7.41482969   11.61285501
 H                  8.33668800    4.94456586   15.18328951
 H                  9.65092481    5.52168889   14.21359416
 H                  7.03989606    6.90306278   14.56571515
 H                  9.53987984    8.04970630   13.39070138
 H                  6.91411091    9.13291310   14.14315482
 H                  9.42433963   10.11266461   15.35177446
 H                  7.12365832    8.61316748   16.59344676
 H                  8.17458390   11.57744239   20.18503841
 H                  6.99246256   10.82824914   19.17912214
 H                  9.62928610    9.67001810   19.83185052
 H                  7.30127667    8.29813858   18.56128918
 H                 10.09204692    7.34832372   19.27675676
 H                  7.49930762    6.54493079   20.57853992
 H                  9.63477706    8.17317319   21.89411615

 1 2 1.0 31 1.0
 2 3 1.0 12 1.0 35 1.0
 3 4 1.0 6 1.0 36 1.0
 4 5 1.0
 5
 6 7 1.0 14 1.0 37 1.0
 7 8 1.0
 8
 9 10 1.0 12 1.0 32 1.0 33 1.0
 10 11 1.0
 11
 12 13 1.0 34 1.0
 13 14 1.0
 14 15 1.0 38 1.0
 15 16 1.0
 16 17 1.0 26 1.0 42 1.0
 17 18 1.0 20 1.0 43 1.0
 18 19 1.0
 19
 20 21 1.0 28 1.0 44 1.0
 21 22 1.0
 22
 23 24 1.0 26 1.0 39 1.0 40 1.0
 24 25 1.0
 25
 26 27 1.0 41 1.0
 27 28 1.0
 28 29 1.0 45 1.0
 29 30 1.0
 30
 31
 32
 33
 34
 35
 36
 37
 38
 39
 40
 41
 42
 43
 44
 45

