# freq=raman b3lyp/6-31+g(2df,p) geom=connectivity

350 10000.com

0 1
 O                  7.57500000    7.50400000   12.30100000
 C                  8.14200000    7.92900000   13.54800000
 C                  7.72900000    9.31700000   14.01100000
 O                  8.21300000   10.24500000   13.02900000
 H                  7.74800000    9.98200000   12.18300000
 C                  8.13800000    9.62000000   15.44300000
 O                  7.45600000   10.78100000   15.94000000
 H                  7.75400000   10.89800000   16.88800000
 C                  7.88000000    5.47800000   14.28700000
 O                  9.01000000    5.09800000   13.48900000
 H                  9.19600000    4.15200000   13.75200000
 C                  7.71200000    6.95000000   14.62800000
 O                  8.46400000    7.26900000   15.80800000
 C                  7.85000000    8.44300000   16.36000000
 O                  8.61600000    8.68000000   17.55000000
 C                  8.10600000    8.31500000   18.84100000
 C                  8.64800000    6.98500000   19.33900000
 O                  8.38400000    5.90600000   18.43000000
 H                  8.23400000    6.21700000   17.49100000
 C                  8.22100000    6.73200000   20.77500000
 O                  8.57000000    5.45700000   21.33400000
 H                  8.42800000    5.43900000   22.32400000
 C                  8.28400000   10.75000000   19.68800000
 O                  8.41800000   11.31300000   18.37500000
 H                  8.33000000   12.30900000   18.38600000
 C                  8.68200000    9.29200000   19.85300000
 O                  8.25500000    9.01000000   21.19300000
 C                  8.74900000    7.78000000   21.74200000
 O                  7.90700000    7.72700000   22.90400000
 H                  8.45253674    7.69100790   23.69310977
 H                  9.80167196    7.75524598   21.93218144
 H                  7.15321290    6.79798653   20.79440323
 H                  9.71240249    7.09134810   19.36424724
 H                  7.03620419    8.32899375   18.85652722
 H                  9.74928640    9.22577901   19.81538997
 H                  8.88132523   11.33211552   20.35825674
 H                  7.26069502   10.84748680   19.98505764
 H                  8.27986557    7.29375098   11.68410464
 H                  6.99735531    5.16127056   13.77171288
 H                  7.93559215    4.93569173   15.20771236
 H                  6.67704383    7.12324253   14.83717156
 H                  9.20838438    7.90047173   13.46487060
 H                  6.66015840    9.35469923   13.97849761
 H                  9.19038205    9.81260370   15.46019982
 H                  6.80665802    8.31292905   16.55854236

 1 2 1.0 38 1.0
 2 3 1.0 12 1.0 42 1.0
 3 4 1.0 6 1.0 43 1.0
 4 5 1.0
 5
 6 7 1.0 14 1.0 44 1.0
 7 8 1.0
 8
 9 10 1.0 12 1.0 39 1.0 40 1.0
 10 11 1.0
 11
 12 13 1.0 41 1.0
 13 14 1.0
 14 15 1.0 45 1.0
 15 16 1.0
 16 17 1.0 26 1.0 34 1.0
 17 18 1.0 20 1.0 33 1.0
 18 19 1.0
 19
 20 21 1.0 28 1.0 32 1.0
 21 22 1.0
 22
 23 24 1.0 26 1.0 36 1.0 37 1.0
 24 25 1.0
 25
 26 27 1.0 35 1.0
 27 28 1.0
 28 29 1.0 31 1.0
 29 30 1.0
 30
 31
 32
 33
 34
 35
 36
 37
 38
 39
 40
 41
 42
 43
 44
 45

