# freq=raman b3lyp/6-31+g(d,p) geom=connectivity

300 8000.com

0 1
 O                  7.58500000    7.50100000   23.11300000
 C                  8.13400000    7.89300000   24.37900000
 C                  7.45800000    9.17700000   24.83300000
 O                  7.73100000   10.23400000   23.90200000
 H                  7.66600000    9.76300000   23.02200000
 C                  7.93700000    9.58800000   26.21600000
 O                  7.14800000   10.68700000   26.69600000
 H                  7.39900000   10.80700000   27.65700000
 C                  8.49800000    5.46500000   25.15300000
 O                  8.00100000    4.74400000   24.01600000
 H                  8.15200000    3.78900000   24.27500000
 C                  7.92600000    6.84000000   25.45600000
 O                  8.53000000    7.22400000   26.69900000
 C                  7.91300000    8.42300000   27.19200000
 O                  8.76300000    8.73700000   28.30500000
 C                  8.11900000    8.34700000   29.52700000
 C                  8.56700000    6.99900000   30.06700000
 O                  8.24600000    5.99400000   29.09300000
 H                  8.40500000    6.42900000   28.20600000
 C                  7.94900000    6.55900000   31.38400000
 O                  8.60900000    5.40200000   31.91800000
 H                  8.36200000    5.21900000   32.87000000
 C                  7.91400000   10.79500000   30.38100000
 O                  7.99900000   11.38100000   29.07400000
 H                  8.22900000   12.34800000   29.18100000
 C                  8.45000000    9.38700000   30.58500000
 O                  7.75200000    8.94300000   31.75700000
 C                  8.21500000    7.71400000   32.33500000
 O                  7.42200000    7.58600000   33.52400000
 H                  7.99947211    7.50391549   34.28648810
 H                  9.25529149    7.77686756   32.57736601
 H                  6.89843093    6.38695152   31.27627840
 H                  9.62986817    7.02370703   30.18783382
 H                  7.06021406    8.32798087   29.37366828
 H                  9.50389421    9.41140977   30.76833345
 H                  8.43640422   11.43920652   31.05701168
 H                  6.88246244   10.79089212   30.66527696
 H                  8.29872391    7.31110002   22.49970058
 H                  8.33774841    4.85329836   26.01615731
 H                  9.55430351    5.57781112   25.02495099
 H                  6.87326607    6.73405793   25.61546020
 H                  9.18261889    8.07213877   24.26407511
 H                  6.40098048    9.01483437   24.86922213
 H                  8.94949288    9.92269617   26.12804184
 H                  6.91513877    8.22593221   27.52417052

 1 2 1.0 38 1.0
 2 3 1.0 12 1.0 42 1.0
 3 4 1.0 6 1.0 43 1.0
 4 5 1.0
 5
 6 7 1.0 14 1.0 44 1.0
 7 8 1.0
 8
 9 10 1.0 12 1.0 39 1.0 40 1.0
 10 11 1.0
 11
 12 13 1.0 41 1.0
 13 14 1.0
 14 15 1.0 45 1.0
 15 16 1.0
 16 17 1.0 26 1.0 34 1.0
 17 18 1.0 20 1.0 33 1.0
 18 19 1.0
 19
 20 21 1.0 28 1.0 32 1.0
 21 22 1.0
 22
 23 24 1.0 26 1.0 36 1.0 37 1.0
 24 25 1.0
 25
 26 27 1.0 35 1.0
 27 28 1.0
 28 29 1.0 31 1.0
 29 30 1.0
 30
 31
 32
 33
 34
 35
 36
 37
 38
 39
 40
 41
 42
 43
 44
 45

