# freq=raman b3lyp/6-31+g(2d,p) geom=connectivity

493 8238/8238.com

0 1
 O                  7.47900000    7.50200000   12.15700000
 C                  7.92300000    7.89500000   13.46300000
 C                  7.28300000    9.22400000   13.83000000
 O                  7.57200000   10.22900000   12.84700000
 H                  7.41100000    9.87600000   11.92500000
 C                  7.79500000    9.65000000   15.19600000
 O                  7.26200000   10.89900000   15.66200000
 H                  7.56800000   10.97900000   16.61000000
 C                  8.14200000    5.49600000   14.23300000
 O                  7.81900000    4.78200000   13.03100000
 H                  8.15300000    3.85900000   13.22400000
 C                  7.52800000    6.86000000   14.50400000
 O                  8.03400000    7.28000000   15.77900000
 C                  7.52400000    8.55000000   16.20900000
 O                  8.31400000    8.76500000   17.38700000
 C                  7.82200000    8.47500000   18.70400000
 C                  8.43900000    7.14900000   19.11500000
 O                  8.08500000    6.10000000   18.20100000
 H                  8.32500000    6.48100000   17.30800000
 C                  7.99100000    6.76600000   20.51700000
 O                  8.60100000    5.56300000   21.00700000
 H                  8.29700000    5.47600000   21.95500000
 C                  7.57100000   10.84100000   19.37700000
 O                  7.71800000   11.55600000   18.14200000
 H                  7.85800000   12.52900000   18.32800000
 C                  8.32300000    9.54900000   19.65600000
 O                  8.02800000    9.10500000   20.98800000
 C                  8.53400000    7.84200000   21.44400000
 O                  7.76200000    7.68600000   22.64300000
 H                  8.35265235    7.58835834   23.39346380
 H                  9.59293925    7.81409233   21.59489342
 H                  6.92429693    6.71014137   20.57964476
 H                  9.50372871    7.25507909   19.11506843
 H                  6.75340000    8.42089777   18.71218484
 H                  9.37605786    9.69480534   19.53471543
 H                  7.83017390   11.52285185   20.15981987
 H                  6.52947184   10.61940505   19.48195131
 H                  7.87931574    4.86353075   15.05511899
 H                  9.20464146    5.62017771   14.24952320
 H                  8.24058008    7.33358436   11.59732870
 H                  6.46213201    6.77625855   14.54657688
 H                  8.98744508    8.00375194   13.45755079
 H                  6.22264007    9.09186366   13.88546901
 H                  8.85623125    9.76329089   15.11949243
 H                  6.48301254    8.48789518   16.44855812

 1 2 1.0 40 1.0
 2 3 1.0 12 1.0 42 1.0
 3 4 1.0 6 1.0 43 1.0
 4 5 1.0
 5
 6 7 1.0 14 1.0 44 1.0
 7 8 1.0
 8
 9 10 1.0 12 1.0 38 1.0 39 1.0
 10 11 1.0
 11
 12 13 1.0 41 1.0
 13 14 1.0
 14 15 1.0 45 1.0
 15 16 1.0
 16 17 1.0 26 1.0 34 1.0
 17 18 1.0 20 1.0 33 1.0
 18 19 1.0
 19
 20 21 1.0 28 1.0 32 1.0
 21 22 1.0
 22
 23 24 1.0 26 1.0 36 1.0 37 1.0
 24 25 1.0
 25
 26 27 1.0 35 1.0
 27 28 1.0
 28 29 1.0 31 1.0
 29 30 1.0
 30
 31
 32
 33
 34
 35
 36
 37
 38
 39
 40
 41
 42
 43
 44
 45

