# freq=raman b3lyp/6-31+g(2d,p) geom=connectivity

500 5863/5863.com

0 1
O           9.17700         6.71200        12.07800
C           9.66400         7.12400        13.36300
C           9.09800         8.47100        13.78300
O           9.24100         9.61000        12.92300
H           8.97400         9.25700        12.02700
C           9.84700         8.94900        15.01700
O           9.61100        10.28900        15.47300
H          10.10000        11.02400        15.00500
C           9.41000         4.75900        14.07300
O           8.51200         3.89300        14.78200
H           8.62400         2.98700        14.37300
C           9.28300         6.20800        14.51500
O           9.69900         6.61700        15.82600
C           9.38400         7.99000        16.10100
O          10.11800         8.01500        17.33500
C           9.48900         7.87000        18.61600
C           9.19800         6.44700        19.06300
O           8.35300         5.68600        18.18700
H           8.68600         5.76100        17.24700
C           8.50900         6.32300        20.41300
O           7.99900         5.01100        20.69400
H           7.60000         4.88500        19.78500
C          10.30600        10.08700        19.63000
O           9.24700        10.84800        20.22800
H           9.45400        11.81700        20.08900
C          10.33800         8.56800        19.66600
O          10.12000         8.16200        21.02500
C           9.44100         6.96400        21.42900
O           8.74500         7.46900        22.57700

