# freq=raman b3lyp/6-31+g(2d,p) geom=connectivity

300 6439/6439.com

0 1
O           7.71200         7.57900        12.27800
C           8.40400         8.00200        13.46200
C           7.90400         9.31700        14.03700
O           7.98600        10.32300        13.01700
H           7.54200         9.95400        12.20100
C           8.47400         9.71700        15.38800
O           7.85600        10.88900        15.93900
H           8.15900        10.99400        16.88600
C           8.66100         5.63400        14.22200
O           8.06200         4.81100        13.21000
H           7.75100         3.92300        13.54900
C           8.29000         7.04800        14.63900
O           8.93100         7.38400        15.87800
C           8.40700         8.60400        16.42200
O           9.18300         8.78100        17.61500
C           8.56300         8.32100        18.82500
C           9.22200         7.04400        19.31900
O           9.12700         6.00500        18.33400
H           9.63000         6.31100        17.52500
C           8.74100         6.67700        20.71400
O           9.26700         5.41500        21.15100
H           8.88300         5.08400        22.01400
C           8.19400        10.78700        19.56100
O           8.59100        11.46200        18.35800
H           8.50300        12.43900        18.55500
C           8.85800         9.44300        19.80800
O           8.36900         9.03800        21.09500
C           9.02700         7.87100        21.60900
O           8.15600         7.69300        22.73500

