# freq=raman b3lyp/6-31+g(2d,p) geom=connectivity

493 9000.com

0 1
C           8.20400         8.03400        24.02900
C           7.73800         9.39700        24.51600
O           8.10000        10.38700        23.54300
H           7.97800         9.91500        22.67000
C           8.30800         9.81900        25.86000
O           7.82900        11.05900        26.40000
H           8.15800        11.24600        27.32500
C           8.74200         5.69800        24.64400
O           8.32400         4.87400        23.54600
H           8.53100         3.93800        23.83100
C           8.00200         6.95300        25.07800
O           8.53000         7.40600        26.33300
C           8.15500         8.68600        26.86200
O           9.01800         8.86300        27.99500
C           8.37800         8.45900        29.21400
C           8.92200         7.12100        29.68700
O           8.51700         6.09300        28.77200
H           8.64700         6.32000        27.80600
C           8.42000         6.70800        31.06100
O           9.19100         5.59800        31.54300
H           8.95500         5.39200        32.49300
C           7.93400        10.85900        30.10800
O           8.32900        11.55000        28.91400
H           8.62400        12.46000        29.20500
C           8.50800         9.47100        30.34000
O           7.82400         9.04100        31.52600
C           8.49800         7.87800        32.02800
O           7.86400         7.62800        33.29000
C           8.48300         7.98100        34.53600

