# freq=raman b3lyp/6-31+g(2d,p) geom=connectivity

493 9000/9000.com

0 1
O           7.24900         7.76200        12.22800
C           7.76600         8.16200        13.50600
C           7.33200         9.50800        14.06300
O           7.71200        10.50100        13.09900
H           7.43900        10.37900        12.14400
C           7.94300         9.83900        15.41500
O           7.51800        11.10900        15.93200
H           7.86300        11.24300        16.86100
C           7.88800         5.73700        14.44400
O           7.79000         5.04000        13.19400
H           7.93200         4.05400        13.28600
C           7.42300         7.17500        14.61000
O           8.03400         7.49900        15.86800
C           7.59300         8.75000        16.41500
O           8.43300         8.95100        17.56100
C           7.88000         8.52400        18.81500
C           8.40200         7.14500        19.18300
O           8.07800         6.11600        18.23700
H           8.21200         6.53200        17.33700
C           7.88500         6.78200        20.56500
O           8.47700         5.51500        20.89100
H           8.19400         5.22100        21.80300
C           7.82100        10.94800        19.65800
O           8.25400        11.70900        18.52100
H           7.96700        12.66500        18.57700
C           8.33800         9.53200        19.85700
O           7.85100         9.15100        21.15200
C           8.27800         7.84800        21.57500
O           7.63000         7.52900        22.81500

