# freq=raman b3lyp/6-31+g(2d,p) geom=connectivity

310 5930/5930.com

0 1
O           8.01600         7.52700        12.24900
C           8.45400         7.92400        13.55600
C           7.92400         9.28800        13.96800
O           8.25900        10.33300        13.04300
H           8.31400        10.04300        12.08700
C           8.46500         9.70600        15.32600
O           7.95800        10.96300        15.79800
H           8.34400        11.19900        16.69000
C           8.36700         5.47200        14.37100
O           7.75300         4.78400        13.27100
H           7.80300         3.80700        13.48000
C           8.01100         6.92900        14.61600
O           8.75600         7.29300        15.78700
C           8.20300         8.53200        16.25400
O           8.95500         8.63900        17.47200
C           8.32300         8.23500        18.69500
C           8.97100         6.98300        19.26300
O           8.83700         5.90500        18.32500
H           9.03100         6.22900        17.39900
C           8.35600         6.54500        20.58300
O           9.01200         5.45900        21.25300
H           8.62400         5.40600        22.17400
C           8.07900        10.75200        19.44300
O           8.64900        11.46700        18.33700
H           8.66400        12.46200        18.43600
C           8.53000         9.32900        19.72900
O           8.02100         9.01300        21.03300
C           8.45800         7.73600        21.52200
O           7.52300         7.63600        22.60700

