# freq=raman b3lyp/6-31+g(2df,p) geom=connectivity

280 6000.com

0 1
 O                  7.38776497    7.57430818   12.49069253
 C                  8.11500000    7.96600000   13.65800000
 C                  7.58700000    9.29500000   14.17200000
 O                  7.78100000   10.30800000   13.17400000
 H                  7.52700000    9.96500000   12.26900000
 C                  8.17000000    9.73300000   15.50600000
 O                  7.58200000   10.93000000   16.03500000
 H                  7.98000000   11.14400000   16.92700000
 C                  8.21700000    5.46200000   14.51700000
 O                  7.50300000    5.00400000   13.36000000
 H                  7.69600000    4.02500000   13.28600000
 C                  7.92000000    6.93400000   14.75700000
 O                  8.65100000    7.34900000   15.92000000
 C                  8.05400000    8.54300000   16.44500000
 O                  8.84700000    8.75200000   17.62300000
 C                  8.32200000    8.41800000   18.91600000
 C                  8.74000000    7.03900000   19.40200000
 O                  8.55100000    6.04200000   18.38700000
 H                  8.78900000    6.39900000   17.48400000
 C                  8.19300000    6.76200000   20.79300000
 O                  8.60700000    5.49900000   21.33400000
 H                  8.11200000    5.19500000   22.14800000
 C                  8.08000000   10.75100000   19.51000000
 O                  8.59900000   11.48600000   18.39200000
 H                  8.42500000   12.47000000   18.43500000
 C                  8.71400000    9.44600000   19.96400000
 O                  8.10400000    9.17200000   21.23400000
 C                  8.51400000    7.89700000   21.75000000
 O                  7.63900000    7.81800000   22.88500000
 H                  8.16137807    7.76207438   23.68848832
 H                  9.54319514    7.89833074   22.04266976
 H                  7.12742270    6.72461203   20.70329402
 H                  9.80040768    7.09798544   19.53221624
 H                  7.25465855    8.42370657   18.84083573
 H                  9.77674867    9.53679671   20.04897782
 H                  8.09626324   11.41269956   20.35070756
 H                  7.05427432   10.53818261   19.29206515
 H                  7.03169597    8.36751311   16.70767627
 H                  9.21158567    9.92647345   15.35577579
 H                  6.53188381    9.18338179   14.31046012
 H                  9.15540816    8.05495989   13.42446840
 H                  8.00434149    7.34022876   11.79309650
 H                  6.88398620    6.98248087   15.02010648
 H                  9.26755109    5.33224382   14.36077665
 H                  7.91181017    4.89400715   15.37089887

 1 2 1.0 42 1.0
 2 3 1.0 12 1.0 41 1.0
 3 4 1.0 6 1.0 40 1.0
 4 5 1.0
 5
 6 7 1.0 14 1.0 39 1.0
 7 8 1.0
 8
 9 10 1.0 12 1.0 44 1.0 45 1.0
 10 11 1.0
 11
 12 13 1.0 43 1.0
 13 14 1.0
 14 15 1.0 38 1.0
 15 16 1.0
 16 17 1.0 26 1.0 34 1.0
 17 18 1.0 20 1.0 33 1.0
 18 19 1.0
 19
 20 21 1.0 28 1.0 32 1.0
 21 22 1.0
 22
 23 24 1.0 26 1.0 36 1.0 37 1.0
 24 25 1.0
 25
 26 27 1.0 35 1.0
 27 28 1.0
 28 29 1.0 31 1.0
 29 30 1.0
 30
 31
 32
 33
 34
 35
 36
 37
 38
 39
 40
 41
 42
 43
 44
 45

