# freq=raman b3lyp/6-31+g(2d,p) geom=connectivity

320 5672/5672.com

0 1
O           7.78800         7.75100        12.19500
C           8.41300         8.01500        13.46000
C           7.95100         9.37800        13.95000
O           8.31800        10.39600        13.00800
H           8.16100         9.96400        12.12000
C           8.44800         9.65300        15.35900
O           7.94900        10.89500        15.87600
H           8.26700        11.11400        16.79800
C           8.50900         5.51000        14.23000
O           8.24700         4.92700        12.94600
H           8.08300         3.95000        13.08100
C           8.01400         6.93100        14.44700
O           8.66500         7.25600        15.68400
C           8.13300         8.46200        16.25000
O           8.87300         8.65000        17.46500
C           8.14100         8.52300        18.69200
C           8.40600         7.13400        19.25000
O           8.21800         6.00900        18.38000
H           8.58600         6.18100        17.46600
C           7.92900         6.81800        20.65800
O           8.40400         5.53100        21.08000
H           8.11800         5.38600        22.02700
C           8.22500        10.85000        19.51800
O           8.43800        11.55100        18.28400
H           8.31700        12.52100        18.49500
C           8.59500         9.41100        19.84000
O           8.11000         9.29600        21.18500
C           8.33400         7.94000        21.59900
O           7.52300         7.69800        22.75800

