# freq=raman b3lyp/6-31+g(2d,p) geom=connectivity

350 9959/9959.com

0 1
 O                  7.76400000    7.71700000   12.29600000
 C                  8.44200000    7.93100000   13.54300000
 C                  8.09400000    9.33500000   14.00900000
 O                  8.69000000   10.24900000   13.07800000
 H                  8.48800000    9.87300000   12.17300000
 C                  8.47800000    9.76300000   15.41600000
 O                  8.08500000   11.09800000   15.76500000
 H                  8.18700000   11.35800000   16.72500000
 C                  8.27100000    5.51500000   14.20900000
 O                  8.11000000    4.80500000   12.97300000
 H                  8.16800000    3.81800000   13.12500000
 C                  7.94200000    6.95000000   14.59000000
 O                  8.35800000    7.27200000   15.92500000
 C                  8.10200000    8.62000000   16.34600000
 O                  8.84800000    8.73800000   17.56600000
 C                  8.12900000    8.42200000   18.76700000
 C                  8.75800000    7.13100000   19.26600000
 O                  8.47900000    6.01800000   18.40400000
 H                  8.51100000    6.35700000   17.46400000
 C                  8.51800000    6.68900000   20.70000000
 O                  9.21100000    5.56800000   21.26600000
 H                  8.86300000    5.37800000   22.18500000
 C                  8.13000000   10.82000000   19.57300000
 O                  8.72400000   11.54100000   18.48400000
 H                  8.67800000   12.53200000   18.60900000
 C                  8.49100000    9.37800000   19.89200000
 O                  8.02200000    9.01400000   21.19900000
 C                  8.67900000    7.83500000   21.68700000
 O                  7.97900000    7.53000000   22.90100000
 H                  8.61277363    7.35430355   23.60032949
 H                  8.41062720    7.59698576   11.59666471
 H                  9.30964439    5.40903667   14.44328531
 H                  7.74443342    4.92172984   14.92709341
 H                  6.87461754    7.02455627   14.58399673
 H                  9.49965993    7.83259496   13.41426801
 H                  7.03237456    9.44031549   13.92678038
 H                  9.54775879    9.78498775   15.42171622
 H                  7.06085063    8.70662577   16.57709300
 H                  8.32696386   11.38733065   20.45857392
 H                  7.07224447   10.84193255   19.41308692
 H                  9.55894235    9.35409745   19.95386932
 H                  7.07340783    8.33489429   18.61521804
 H                  9.81350979    7.29148382   19.19497874
 H                  7.48229327    6.42256463   20.73498231
 H                  9.71297711    8.02878844   21.88254379

 1 2 1.0 31 1.0
 2 3 1.0 12 1.0 35 1.0
 3 4 1.0 6 1.0 36 1.0
 4 5 1.0
 5
 6 7 1.0 14 1.0 37 1.0
 7 8 1.0
 8
 9 10 1.0 12 1.0 32 1.0 33 1.0
 10 11 1.0
 11
 12 13 1.0 34 1.0
 13 14 1.0
 14 15 1.0 38 1.0
 15 16 1.0
 16 17 1.0 26 1.0 42 1.0
 17 18 1.0 20 1.0 43 1.0
 18 19 1.0
 19
 20 21 1.0 28 1.0 44 1.0
 21 22 1.0
 22
 23 24 1.0 26 1.0 39 1.0 40 1.0
 24 25 1.0
 25
 26 27 1.0 41 1.0
 27 28 1.0
 28 29 1.0 45 1.0
 29 30 1.0
 30
 31
 32
 33
 34
 35
 36
 37
 38
 39
 40
 41
 42
 43
 44
 45

