# freq=raman b3lyp/6-31+g(2d,p) geom=connectivity

350 9959/9959.com

0 1
O           7.76400         7.71700        12.29600
C           8.44200         7.93100        13.54300
C           8.09400         9.33500        14.00900
O           8.69000        10.24900        13.07800
H           8.48800         9.87300        12.17300
C           8.47800         9.76300        15.41600
O           8.08500        11.09800        15.76500
H           8.18700        11.35800        16.72500
C           8.27100         5.51500        14.20900
O           8.11000         4.80500        12.97300
H           8.16800         3.81800        13.12500
C           7.94200         6.95000        14.59000
O           8.35800         7.27200        15.92500
C           8.10200         8.62000        16.34600
O           8.84800         8.73800        17.56600
C           8.12900         8.42200        18.76700
C           8.75800         7.13100        19.26600
O           8.47900         6.01800        18.40400
H           8.51100         6.35700        17.46400
C           8.51800         6.68900        20.70000
O           9.21100         5.56800        21.26600
H           8.86300         5.37800        22.18500
C           8.13000        10.82000        19.57300
O           8.72400        11.54100        18.48400
H           8.67800        12.53200        18.60900
C           8.49100         9.37800        19.89200
O           8.02200         9.01400        21.19900
C           8.67900         7.83500        21.68700
O           7.97900         7.53000        22.90100

