# freq=raman b3lyp/6-31+g(2d,p) geom=connectivity

300 7545/7545.com

0 1
O           7.40800         7.72100        12.27000
C           8.03900         8.05200        13.51500
C           7.57300         9.40300        14.03400
O           7.98300        10.44200        13.13400
H           7.93100        10.10200        12.19500
C           8.02900         9.71800        15.45000
O           7.44900        10.87600        16.06800
H           7.96500        11.16200        16.87500
C           8.08100         5.60700        14.26700
O           7.62900         4.87600        13.11900
H           7.87600         3.90800        13.17100
C           7.62100         7.02700        14.55700
O           8.38400         7.29800        15.74200
C           7.95600         8.51400        16.37400
O           8.89100         8.74100        17.43700
C           8.47300         8.42700        18.77300
C           8.87500         7.02600        19.20300
O           8.61100         5.99200        18.24400
H           8.68100         6.33400        17.30700
C           8.26400         6.59800        20.52700
O           8.79400         5.48400        21.25900
H           8.27700         5.50900        22.11500
C           8.40400        10.84800        19.66700
O           8.68900        11.58700        18.47000
H           8.42300        12.53400        18.64800
C           8.87200         9.41500        19.85800
O           8.17500         9.08600        21.06800
C           8.37700         7.74000        21.52400
O           7.52500         7.64400        22.67400

