# freq=raman b3lyp/6-31+g(2d,p) geom=connectivity

350 7547/7547.com

0 1
O           7.84000         7.34800        12.35600
C           8.43400         7.88300        13.54800
C           7.97300         9.19500        14.16300
O           7.99100        10.27800        13.22200
H           7.85100         9.88100        12.31500
C           8.50800         9.68700        15.49800
O           7.71500        10.76200        16.02200
H           7.99000        10.84800        16.98000
C           8.62600         5.43900        14.39400
O           7.96900         4.80300        13.28800
H           8.03100         3.80600        13.31300
C           8.31000         6.89500        14.69700
O           9.08300         7.38200        15.80300
C           8.50500         8.51600        16.46600
O           9.26200         8.67100        17.67500
C           8.50400         8.46000        18.87500
C           9.05000         7.20900        19.54300
O           9.06300         6.11100        18.62000
H           9.50500         6.40500        17.77300
C           8.29200         6.83700        20.80600
O           8.64800         5.51800        21.24700
H           8.11800         5.36700        22.08200
C           8.21200        10.94700        19.51300
O           8.65300        11.66000        18.34900
H           8.50000        12.63400        18.52000
C           8.77500         9.58000        19.86700
O           8.00200         9.26500        21.03400
C           8.42500         8.06300        21.69500
O           7.74800         7.76600        22.92400

