# freq=raman b3lyp/6-31+g(2d,p) geom=connectivity

350 7547/7547.com

0 1
 O                  7.84000000    7.34800000   12.35600000
 C                  8.43400000    7.88300000   13.54800000
 C                  7.97300000    9.19500000   14.16300000
 O                  7.99100000   10.27800000   13.22200000
 H                  7.85100000    9.88100000   12.31500000
 C                  8.50800000    9.68700000   15.49800000
 O                  7.71500000   10.76200000   16.02200000
 H                  7.99000000   10.84800000   16.98000000
 C                  8.62600000    5.43900000   14.39400000
 O                  7.96900000    4.80300000   13.28800000
 H                  8.03100000    3.80600000   13.31300000
 C                  8.31000000    6.89500000   14.69700000
 O                  9.08300000    7.38200000   15.80300000
 C                  8.50500000    8.51600000   16.46600000
 O                  9.26200000    8.67100000   17.67500000
 C                  8.50400000    8.46000000   18.87500000
 C                  9.05000000    7.20900000   19.54300000
 O                  9.06300000    6.11100000   18.62000000
 H                  9.50500000    6.40500000   17.77300000
 C                  8.29200000    6.83700000   20.80600000
 O                  8.64800000    5.51800000   21.24700000
 H                  8.11800000    5.36700000   22.08200000
 C                  8.21200000   10.94700000   19.51300000
 O                  8.65300000   11.66000000   18.34900000
 H                  8.50000000   12.63400000   18.52000000
 C                  8.77500000    9.58000000   19.86700000
 O                  8.00200000    9.26500000   21.03400000
 C                  8.42500000    8.06300000   21.69500000
 O                  7.74800000    7.76600000   22.92400000
 H                  8.39486416    7.59937670   23.61349506
 H                  8.39273121   11.58386413   20.35361900
 H                  7.15203188   10.83186903   19.42293093
 H                  9.81630242    9.64208068   20.10519166
 H                  7.45859530    8.36621392   18.66707410
 H                 10.06343467    7.40871689   19.82221915
 H                  7.25852406    6.78232889   20.53426748
 H                  9.46356054    8.17886597   21.92492844
 H                  8.53150592    7.07533266   11.74848697
 H                  8.39781285    4.87170867   15.27207242
 H                  9.68017016    5.36793117   14.22496007
 H                  7.28603303    6.92057588   15.00641479
 H                  9.47804532    7.99324123   13.34132090
 H                  6.93338488    9.02862205   14.35383703
 H                  9.51361640   10.02799215   15.36624265
 H                  7.49199506    8.28593743   16.72249990

 1 2 1.0 38 1.0
 2 3 1.0 12 1.0 42 1.0
 3 4 1.0 6 1.0 43 1.0
 4 5 1.0
 5
 6 7 1.0 14 1.0 44 1.0
 7 8 1.0
 8
 9 10 1.0 12 1.0 39 1.0 40 1.0
 10 11 1.0
 11
 12 13 1.0 41 1.0
 13 14 1.0
 14 15 1.0 45 1.0
 15 16 1.0
 16 17 1.0 26 1.0 34 1.0
 17 18 1.0 20 1.0 35 1.0
 18 19 1.0
 19
 20 21 1.0 28 1.0 36 1.0
 21 22 1.0
 22
 23 24 1.0 26 1.0 31 1.0 32 1.0
 24 25 1.0
 25
 26 27 1.0 33 1.0
 27 28 1.0
 28 29 1.0 37 1.0
 29 30 1.0
 30
 31
 32
 33
 34
 35
 36
 37
 38
 39
 40
 41
 42
 43
 44
 45

