# freq=raman b3lyp/6-31+g(2d,p) geom=connectivity

493 5000.com

0 1
C           8.02600         7.82600        23.99900
C           7.60400         9.15100        24.61300
O           7.81900        10.25200        23.71800
H           7.60700         9.99900        22.77400
C           8.19300         9.49400        25.97200
O           7.62100        10.64200        26.61500
H           8.07500        10.83900        27.48400
C           8.03800         5.36500        24.70400
O           7.53800         4.69000        23.54100
H           7.85800         3.74600        23.62500
C           7.68700         6.79900        25.06700
O           8.28000         7.07200        26.34500
C           7.88500         8.33300        26.90400
O           8.64300         8.56300        28.10000
C           8.05800         8.27400        29.37700
C           8.48100         6.89300        29.85100
O           8.12000         5.91800        28.86100
H           8.56300         6.23400        28.02200
C           7.91900         6.56400        31.22400
O           8.48500         5.35100        31.74300
H           8.36000         5.24300        32.72900
C           7.97100        10.70400        30.08200
O           8.39600        11.42900        28.92000
H           7.82900        12.25200        28.87500
C           8.41100         9.29500        30.44700
O           7.84700         9.03900        31.74100
C           8.19700         7.71700        32.17400
O           7.50600         7.46000        33.40600
C           8.05200         7.99200        34.62200

