# freq=raman b3lyp/6-31+g(2d,p) geom=connectivity

493 5000/5000.com

0 1
O           7.86700         7.55100        12.44300
C           8.25200         7.95300        13.76500
C           7.69900         9.29400        14.21800
O           7.85200        10.32100        13.22700
H           7.87200         9.82700        12.35800
C           8.37500         9.70600        15.51600
O           7.93600        10.97100        16.03000
H           8.37800        11.12900        16.91200
C           8.08000         5.47900        14.43900
O           7.59600         4.90600        13.21600
H           7.78100         3.92400        13.17400
C           7.79600         6.93000        14.79300
O           8.31700         7.28900        16.08100
C           8.07800         8.62600        16.54300
O           8.88000         8.84400        17.71300
C           8.25500         8.35300        18.90800
C           8.69300         6.95600        19.31700
O           8.30600         5.95600        18.36300
H           8.64000         6.24400        17.46600
C           8.25500         6.52700        20.70800
O           8.87500         5.36100        21.27000
H           8.42300         5.02300        22.09500
C           8.05300        10.76400        19.62900
O           8.69600        11.46300        18.55300
H           8.59300        12.45400        18.64100
C           8.56400         9.37800        19.98700
O           7.93000         9.03500        21.22800
C           8.34200         7.72400        21.64100
O           7.43700         7.50100        22.73200

