# freq=raman b3lyp/6-31+g(2d,p) geom=connectivity

280 9006/9006.com

0 1
O           7.79800         7.47000        12.27300
C           8.47800         7.90500        13.46000
C           7.77100         9.11900        14.03900
O           7.81500        10.17800        13.07100
H           7.64900         9.71700        12.20000
C           8.20500         9.63800        15.40100
O           7.47400        10.73600        15.96600
H           7.84300        10.82500        16.89200
C           8.82100         5.48100        14.31500
O           8.20800         4.65200        13.31600
H           8.28900         3.65800        13.39400
C           8.25700         6.87200        14.55300
O           8.81900         7.23100        15.82400
C           8.27400         8.45100        16.34700
O           9.03800         8.66900        17.54300
C           8.45500         8.38000        18.82200
C           8.84400         7.03600        19.41600
O           8.59900         5.91100        18.56000
H           8.87100         6.32800        17.69300
C           8.33300         6.81600        20.83100
O           8.70800         5.54300        21.37500
H           8.16500         5.44700        22.20900
C           8.21500        10.82100        19.46600
O           8.50600        11.46500        18.21700
H           8.21500        12.41800        18.30100
C           8.83700         9.47600        19.80300
O           8.22500         9.24500        21.08000
C           8.70200         8.02800        21.67100
O           7.90800         7.79600        22.84300

