# freq=raman b3lyp/6-31+g(2d,p) geom=connectivity

280 9006/9006.com

0 1
 O                  7.79800000    7.47000000   12.27300000
 C                  8.47800000    7.90500000   13.46000000
 C                  7.77100000    9.11900000   14.03900000
 O                  7.81500000   10.17800000   13.07100000
 H                  7.64900000    9.71700000   12.20000000
 C                  8.20500000    9.63800000   15.40100000
 O                  7.47400000   10.73600000   15.96600000
 H                  7.84300000   10.82500000   16.89200000
 C                  8.82100000    5.48100000   14.31500000
 O                  8.20800000    4.65200000   13.31600000
 H                  8.28900000    3.65800000   13.39400000
 C                  8.25700000    6.87200000   14.55300000
 O                  8.81900000    7.23100000   15.82400000
 C                  8.27400000    8.45100000   16.34700000
 O                  9.03800000    8.66900000   17.54300000
 C                  8.45500000    8.38000000   18.82200000
 C                  8.84400000    7.03600000   19.41600000
 O                  8.59900000    5.91100000   18.56000000
 H                  8.87100000    6.32800000   17.69300000
 C                  8.33300000    6.81600000   20.83100000
 O                  8.70800000    5.54300000   21.37500000
 H                  8.16500000    5.44700000   22.20900000
 C                  8.21500000   10.82100000   19.46600000
 O                  8.50600000   11.46500000   18.21700000
 H                  8.21500000   12.41800000   18.30100000
 C                  8.83700000    9.47600000   19.80300000
 O                  8.22500000    9.24500000   21.08000000
 C                  8.70200000    8.02800000   21.67100000
 O                  7.90800000    7.79600000   22.84300000
 H                  8.44351403    7.22549812   11.60581901
 H                  8.77595478    4.95211825   15.24406137
 H                  9.85224495    5.59242725   14.05228755
 H                  7.19988787    6.77156144   14.68462842
 H                  9.51764016    8.08997398   13.28727780
 H                  6.74213334    8.84339907   14.14087018
 H                  9.20982459    9.98517577   15.27977080
 H                  7.26955292    8.24056655   16.64982639
 H                  8.48469296    7.64696754   23.59587088
 H                  8.49622455   11.50074978   20.24301544
 H                  7.15332093   10.69756071   19.51600286
 H                  9.89969195    9.55773775   19.89736505
 H                  7.39109931    8.39370924   18.70874197
 H                  9.90874234    7.07913894   19.51276148
 H                  7.26487032    6.80886979   20.76816569
 H                  9.74784395    8.06390649   21.89420651

 1 2 1.0 30 1.0
 2 3 1.0 12 1.0 34 1.0
 3 4 1.0 6 1.0 35 1.0
 4 5 1.0
 5
 6 7 1.0 14 1.0 36 1.0
 7 8 1.0
 8
 9 10 1.0 12 1.0 31 1.0 32 1.0
 10 11 1.0
 11
 12 13 1.0 33 1.0
 13 14 1.0
 14 15 1.0 37 1.0
 15 16 1.0
 16 17 1.0 26 1.0 42 1.0
 17 18 1.0 20 1.0 43 1.0
 18 19 1.0
 19
 20 21 1.0 28 1.0 44 1.0
 21 22 1.0
 22
 23 24 1.0 26 1.0 39 1.0 40 1.0
 24 25 1.0
 25
 26 27 1.0 41 1.0
 27 28 1.0
 28 29 1.0 45 1.0
 29 38 1.0
 30
 31
 32
 33
 34
 35
 36
 37
 38
 39
 40
 41
 42
 43
 44
 45

