# freq=raman b3lyp/6-31+g(2d,p) geom=connectivity

320 5646/5646.com

0 1
O           7.65600         7.49700        12.32900
C           8.13200         7.87500        13.62900
C           7.71700         9.23500        14.16700
O           8.15700        10.27900        13.28700
H           7.82600        10.02600        12.37800
C           8.20700         9.62300        15.55300
O           7.56100        10.81300        16.02700
H           7.58200        10.85300        17.02600
C           8.32800         5.51200        14.31700
O           7.88100         4.85800        13.12100
H           7.90100         3.87000        13.27800
C           7.72600         6.85900        14.68300
O           8.13800         7.18600        16.01800
C           7.74700         8.49400        16.46100
O           8.50000         8.65400        17.67200
C           7.95200         8.29300        18.94700
C           8.76600         7.08400        19.37800
O           8.50900         5.97200        18.50800
H           8.64000         6.31600        17.57800
C           8.34900         6.65500        20.77500
O           9.12800         5.53800        21.22600
H           8.89900         5.25100        22.15600
C           7.94900        10.77500        19.73100
O           7.94000        11.41000        18.44400
H           7.91700        12.40400        18.55000
C           8.44500         9.35100        19.92100
O           7.93600         9.06900        21.23300
C           8.43400         7.82400        21.74400
O           7.52800         7.59600        22.83300

