# freq=raman b3lyp/6-31+g(2d,p) geom=connectivity

450 5915/5915.com

0 1
 O                 10.15700000    8.07300000   11.46000000
 C                 11.04500000    7.97000000   12.58300000
 C                 11.17400000    9.40500000   13.06600000
 O                 11.98900000   10.15200000   12.15100000
 H                 11.46800000   10.09200000   11.29900000
 C                 11.94600000    9.51000000   14.37100000
 O                 12.07300000   10.82800000   14.92300000
 H                 11.98300000   11.65200000   14.36400000
 C                 10.28800000    5.68400000   13.28900000
 O                  9.90400000    4.74400000   14.30200000
 H                  9.83300000    3.87300000   13.81400000
 C                 10.36100000    7.15400000   13.66800000
 O                 11.09500000    7.42200000   14.87100000
 C                 11.09500000    8.76300000   15.38400000
 O                 11.75500000    8.52200000   16.63600000
 C                 11.02300000    8.44800000   17.86800000
 C                 10.43000000    7.10800000   18.27200000
 O                  9.53800000    6.54200000   17.30000000
 H                  9.73700000    6.91400000   16.39400000
 C                  9.68600000    7.15400000   19.59600000
 O                  9.03500000    5.91300000   19.90600000
 H                  8.31400000    5.82700000   19.21800000
 C                 12.82300000    9.90100000   18.69000000
 O                 12.33800000   11.22000000   18.97800000
 H                 12.71600000   11.97000000   18.43500000
 C                 12.01900000    8.64800000   18.99900000
 O                 11.40600000    8.64300000   20.29600000
 C                 10.66300000    7.48700000   20.71100000
 O                 10.05800000    7.83900000   21.96400000
 H                 10.74386529    8.02066709   22.61067292
 H                 13.03626315    9.87619444   17.64176171
 H                 13.75593178    9.79969146   19.20407672
 H                 12.69885158    7.82221238   18.97113187
 H                 10.27220986    9.20970760   17.89987016
 H                 11.24571106    6.42555981   18.38943446
 H                  8.94633269    7.92557471   19.54635398
 H                 11.33275507    6.66526511   20.85618924
 H                 10.67012954    8.14710537   10.65203560
 H                 11.25232450    5.39438507   12.92692067
 H                  9.59267628    5.59178066   12.48096502
 H                  9.36343710    7.52096869   13.79089119
 H                 11.99190765    7.55586304   12.30595038
 H                 10.20936135    9.85763821   13.16342135
 H                 12.90642214    9.04763172   14.27769998
 H                 10.10899700    9.16395240   15.49324862

 1 2 1.0 38 1.0
 2 3 1.0 12 1.0 42 1.0
 3 4 1.0 6 1.0 43 1.0
 4 5 1.0
 5
 6 7 1.0 14 1.0 44 1.0
 7 8 1.0
 8
 9 10 1.0 12 1.0 39 1.0 40 1.0
 10 11 1.0
 11
 12 13 1.0 41 1.0
 13 14 1.0
 14 15 1.0 45 1.0
 15 16 1.0
 16 17 1.0 26 1.0 34 1.0
 17 18 1.0 20 1.0 35 1.0
 18 19 1.0
 19
 20 21 1.0 28 1.0 36 1.0
 21 22 1.0
 22
 23 24 1.0 26 1.0 31 1.0 32 1.0
 24 25 1.0
 25
 26 27 1.0 33 1.0
 27 28 1.0
 28 29 1.0 37 1.0
 29 30 1.0
 30
 31
 32
 33
 34
 35
 36
 37
 38
 39
 40
 41
 42
 43
 44
 45

