# freq=raman b3lyp/6-31+g(2d,p) geom=connectivity

450 5915/5915.com

0 1
O          10.15700         8.07300        11.46000
C          11.04500         7.97000        12.58300
C          11.17400         9.40500        13.06600
O          11.98900        10.15200        12.15100
H          11.46800        10.09200        11.29900
C          11.94600         9.51000        14.37100
O          12.07300        10.82800        14.92300
H          11.98300        11.65200        14.36400
C          10.28800         5.68400        13.28900
O           9.90400         4.74400        14.30200
H           9.83300         3.87300        13.81400
C          10.36100         7.15400        13.66800
O          11.09500         7.42200        14.87100
C          11.09500         8.76300        15.38400
O          11.75500         8.52200        16.63600
C          11.02300         8.44800        17.86800
C          10.43000         7.10800        18.27200
O           9.53800         6.54200        17.30000
H           9.73700         6.91400        16.39400
C           9.68600         7.15400        19.59600
O           9.03500         5.91300        19.90600
H           8.31400         5.82700        19.21800
C          12.82300         9.90100        18.69000
O          12.33800        11.22000        18.97800
H          12.71600        11.97000        18.43500
C          12.01900         8.64800        18.99900
O          11.40600         8.64300        20.29600
C          10.66300         7.48700        20.71100
O          10.05800         7.83900        21.96400

