# freq=raman b3lyp/6-31+g(2d,p) geom=connectivity

493 5435/5435.com

0 1
 O                  7.65000000    7.60700000   12.18200000
 C                  8.17900000    7.88500000   13.48600000
 C                  7.61500000    9.20900000   13.97700000
 O                  8.09000000   10.19200000   13.04600000
 H                  7.85600000    9.78800000   12.16100000
 C                  8.11900000    9.58500000   15.36000000
 O                  7.36600000   10.65000000   15.95800000
 H                  7.73100000   10.77000000   16.88100000
 C                  8.27700000    5.56700000   14.24700000
 O                  8.03500000    4.91300000   12.99300000
 H                  8.25000000    3.94200000   13.10400000
 C                  7.74100000    6.94600000   14.59700000
 O                  8.30800000    7.14200000   15.90100000
 C                  7.99900000    8.46100000   16.37600000
 O                  8.66000000    8.70700000   17.62500000
 C                  8.03000000    8.24500000   18.82900000
 C                  8.43400000    6.87400000   19.34500000
 O                  8.08900000    5.90800000   18.34100000
 H                  8.27000000    6.30000000   17.43800000
 C                  7.89700000    6.53400000   20.72600000
 O                  8.51400000    5.35200000   21.25800000
 H                  7.87200000    4.93800000   21.90300000
 C                  7.89200000   10.63500000   19.64400000
 O                  8.25800000   11.30400000   18.42800000
 H                  8.20800000   12.28500000   18.61800000
 C                  8.32400000    9.21300000   19.96300000
 O                  7.67400000    8.92300000   21.20900000
 C                  8.16200000    7.66700000   21.70300000
 O                  7.45300000    7.54200000   22.94500000
 H                  8.08196766    7.46937391   23.66661287
 H                  9.21230633    7.73935377   21.89410609
 H                  6.84123647    6.37393197   20.65787074
 H                  9.50121199    6.87403205   19.42219177
 H                  6.97275611    8.23699113   18.66446670
 H                  9.38072284    9.21462771   20.13103035
 H                  8.24533516   11.24782284   20.44680909
 H                  6.82292152   10.64529020   19.68718924
 H                  8.37328478    7.47538437   11.56463750
 H                  7.91774863    4.90369494   15.00585759
 H                  9.33992875    5.62109888   14.35725331
 H                  6.67313159    6.91975978   14.65919728
 H                  9.24714932    7.93423357   13.44684535
 H                  6.54541595    9.18034911   13.96868825
 H                  9.14462011    9.88122515   15.28751523
 H                  6.95735794    8.42719342   16.61836115

 1 2 1.0 38 1.0
 2 3 1.0 12 1.0 42 1.0
 3 4 1.0 6 1.0 43 1.0
 4 5 1.0
 5
 6 7 1.0 14 1.0 44 1.0
 7 8 1.0
 8
 9 10 1.0 12 1.0 39 1.0 40 1.0
 10 11 1.0
 11
 12 13 1.0 41 1.0
 13 14 1.0
 14 15 1.0 45 1.0
 15 16 1.0
 16 17 1.0 26 1.0 34 1.0
 17 18 1.0 20 1.0 33 1.0
 18 19 1.0
 19
 20 21 1.0 28 1.0 32 1.0
 21 22 1.0
 22
 23 24 1.0 26 1.0 36 1.0 37 1.0
 24 25 1.0
 25
 26 27 1.0 35 1.0
 27 28 1.0
 28 29 1.0 31 1.0
 29 30 1.0
 30
 31
 32
 33
 34
 35
 36
 37
 38
 39
 40
 41
 42
 43
 44
 45

