# freq=raman b3lyp/6-31+g(2df,p) geom=connectivity

310 5000.com

0 1
 O                  7.85500000    7.44700000   12.20400000
 C                  8.36000000    7.82700000   13.49200000
 C                  7.75100000    9.15300000   13.91900000
 O                  7.93800000   10.14500000   12.89800000
 H                  7.43100000    9.80600000   12.10600000
 C                  8.27000000    9.56000000   15.28800000
 O                  7.76000000   10.75700000   15.89400000
 H                  8.21000000   10.86500000   16.78100000
 C                  8.53700000    5.39400000   14.18500000
 O                  8.15700000    4.67800000   13.00200000
 H                  8.18900000    3.70400000   13.22600000
 C                  8.03100000    6.78100000   14.54400000
 O                  8.62400000    7.21600000   15.77600000
 C                  8.15200000    8.45500000   16.32500000
 O                  9.05300000    8.54200000   17.43800000
 C                  8.57700000    8.19900000   18.74700000
 C                  8.93000000    6.80800000   19.24900000
 O                  8.39800000    5.88800000   18.28500000
 H                  8.46200000    6.31900000   17.38500000
 C                  8.43700000    6.34600000   20.61100000
 O                  9.03500000    5.18300000   21.20300000
 H                  8.54900000    5.05200000   22.06700000
 C                  8.11600000   10.55100000   19.60400000
 O                  8.52600000   11.26100000   18.42500000
 H                  8.40900000   12.25200000   18.36800000
 C                  8.80400000    9.21900000   19.85200000
 O                  8.14600000    8.78200000   21.04900000
 C                  8.63700000    7.52800000   21.54500000
 O                  7.76000000    7.37200000   22.67000000
 H                  8.58953740    7.27209302   11.61115739
 H                  8.28080918    7.26123247   23.46880432
 H                  9.65626457    7.60842868   21.86048529
 H                  7.38556407    6.16430302   20.53119591
 H                  9.99618749    6.71821171   19.23992777
 H                  7.51359536    8.17279052   18.63131237
 H                  9.84978034    9.36127020   20.02807573
 H                  8.29544979   11.18051673   20.45040797
 H                  7.06299437   10.37367027   19.53593154
 H                  7.14163575    8.35607241   16.66304943
 H                  9.31849866    9.72768911   15.15597377
 H                  6.69668608    8.99880978   14.01671146
 H                  9.42264962    7.93599850   13.43039550
 H                  6.96904184    6.73879728   14.66795082
 H                  8.28420252    4.76162365   15.01028394
 H                  9.60452308    5.46293562   14.16171152

 1 2 1.0 30 1.0
 2 3 1.0 12 1.0 42 1.0
 3 4 1.0 6 1.0 41 1.0
 4 5 1.0
 5
 6 7 1.0 14 1.0 40 1.0
 7 8 1.0
 8
 9 10 1.0 12 1.0 44 1.0 45 1.0
 10 11 1.0
 11
 12 13 1.0 43 1.0
 13 14 1.0
 14 15 1.0 39 1.0
 15 16 1.0
 16 17 1.0 26 1.0 35 1.0
 17 18 1.0 20 1.0 34 1.0
 18 19 1.0
 19
 20 21 1.0 28 1.0 33 1.0
 21 22 1.0
 22
 23 24 1.0 26 1.0 37 1.0 38 1.0
 24 25 1.0
 25
 26 27 1.0 36 1.0
 27 28 1.0
 28 29 1.0 32 1.0
 29 31 1.0
 30
 31
 32
 33
 34
 35
 36
 37
 38
 39
 40
 41
 42
 43
 44
 45

