# freq=raman b3lyp/6-31+g(d,p) geom=connectivity

450 7000.com

0 1
O          10.64500         7.85700        21.67400
C          11.41800         7.87400        22.88300
C          11.66300         9.25000        23.48100
O          12.25900        10.07600        22.47000
H          12.50900         9.62000        21.61600
C          12.52100         9.17300        24.73300
O          12.90500        10.46500        25.22600
H          13.37000        10.99700        24.51800
C          10.69200         5.60300        23.60600
O          10.30200         4.60600        24.56200
H          10.29300         3.69500        24.14900
C          10.80600         7.06300        24.01400
O          11.57300         7.03100        25.22600
C          11.78700         8.34100        25.77200
O          12.36800         8.07100        27.05600
C          11.40100         8.31500        28.08800
C          10.73100         7.01500        28.50400
O           9.71900         6.65800        27.55100
H          10.14700         6.70600        26.64900
C           9.99100         7.27300        29.80700
O           9.25900         6.09600        30.17800
H           8.69100         5.85200        29.39200
C          12.73700        10.26800        28.91000
O          13.53300        10.81600        29.97000
H          14.39800        10.37900        30.21400
C          12.13000         8.92300        29.27500
O          11.42300         8.96100        30.52300
C          10.88900         7.70200        30.95600
O          10.26800         7.84700        32.24200

