# freq=raman b3lyp/6-31+g(2d,p) geom=connectivity

350 5200/5200.com

0 1
O           7.83900         7.41400        12.27400
C           8.36400         7.79300        13.55400
C           7.78400         9.06100        14.15800
O           8.12800        10.09500        13.22400
H           8.01700         9.72900        12.30000
C           8.37100         9.50100        15.48900
O           7.47800        10.37500        16.19600
H           7.93000        10.76800        16.99700
C           8.86600         5.36800        14.24700
O           8.44000         4.70800        13.04600
H           8.71100         3.76800        13.24900
C           8.30100         6.72500        14.63400
O           9.06500         7.20100        15.75200
C           8.47900         8.31800        16.43700
O           9.27000         8.65500        17.58600
C           8.52600         8.31000        18.76400
C           9.00200         7.00000        19.37100
O           9.25600         5.96700        18.40800
H           9.65200         6.37800        17.58600
C           8.30000         6.54100        20.63800
O           8.80900         5.31000        21.17200
H           8.16700         5.00200        21.87400
C           8.20300        10.65300        19.62700
O           8.66800        11.27700        18.42200
H           8.63100        12.23100        18.72000
C           8.63000         9.23500        19.96700
O           7.80100         8.89200        21.08600
C           8.35900         7.68900        21.63300
O           7.58900         7.38400        22.80500

