# freq=raman b3lyp/6-31+g(2d,p) geom=connectivity

350 5200/5200.com

0 1
 O                  7.83900000    7.41400000   12.27400000
 C                  8.36400000    7.79300000   13.55400000
 C                  7.78400000    9.06100000   14.15800000
 O                  8.12800000   10.09500000   13.22400000
 H                  8.01700000    9.72900000   12.30000000
 C                  8.37100000    9.50100000   15.48900000
 O                  7.47800000   10.37500000   16.19600000
 H                  7.93000000   10.76800000   16.99700000
 C                  8.86600000    5.36800000   14.24700000
 O                  8.44000000    4.70800000   13.04600000
 H                  8.71100000    3.76800000   13.24900000
 C                  8.30100000    6.72500000   14.63400000
 O                  9.06500000    7.20100000   15.75200000
 C                  8.47900000    8.31800000   16.43700000
 O                  9.27000000    8.65500000   17.58600000
 C                  8.52600000    8.31000000   18.76400000
 C                  9.00200000    7.00000000   19.37100000
 O                  9.25600000    5.96700000   18.40800000
 H                  9.65200000    6.37800000   17.58600000
 C                  8.30000000    6.54100000   20.63800000
 O                  8.80900000    5.31000000   21.17200000
 H                  8.16700000    5.00200000   21.87400000
 C                  8.20300000   10.65300000   19.62700000
 O                  8.66800000   11.27700000   18.42200000
 H                  8.63100000   12.23100000   18.72000000
 C                  8.63000000    9.23500000   19.96700000
 O                  7.80100000    8.89200000   21.08600000
 C                  8.35900000    7.68900000   21.63300000
 O                  7.58900000    7.38400000   22.80500000
 H                  8.18108807    7.19368510   23.53630839
 H                  8.56418167    7.23540482   11.67082895
 H                  8.66217031    4.70156395   15.05892145
 H                  9.92832979    5.47860270   14.18279363
 H                  7.28260078    6.60102786   14.93796372
 H                  9.40331822    7.99050723   13.39366118
 H                  6.72008968    8.97740700   14.23550515
 H                  9.32544590    9.96450619   15.35081522
 H                  7.49660087    8.04621952   16.76246478
 H                  8.50456268   11.27720199   20.44206553
 H                  7.13354207   10.66097883   19.59389305
 H                  9.64923010    9.25446584   20.29210165
 H                  7.49448587    8.21008074   18.49773933
 H                  9.98276277    7.24498545   19.72169435
 H                  7.27066501    6.38045357   20.39388052
 H                  9.37679896    7.86468296   21.91250095

 1 2 1.0 31 1.0
 2 3 1.0 12 1.0 35 1.0
 3 4 1.0 6 1.0 36 1.0
 4 5 1.0
 5
 6 7 1.0 14 1.0 37 1.0
 7 8 1.0
 8
 9 10 1.0 12 1.0 32 1.0 33 1.0
 10 11 1.0
 11
 12 13 1.0 34 1.0
 13 14 1.0
 14 15 1.0 38 1.0
 15 16 1.0
 16 17 1.0 26 1.0 42 1.0
 17 18 1.0 20 1.0 43 1.0
 18 19 1.0
 19
 20 21 1.0 28 1.0 44 1.0
 21 22 1.0
 22
 23 24 1.0 26 1.0 39 1.0 40 1.0
 24 25 1.0
 25
 26 27 1.0 41 1.0
 27 28 1.0
 28 29 1.0 45 1.0
 29 30 1.0
 30
 31
 32
 33
 34
 35
 36
 37
 38
 39
 40
 41
 42
 43
 44
 45

