# freq=raman b3lyp/6-31+g(2d,p) geom=connectivity

290 7973/7973.com

0 1
O           7.76800         7.43800        12.13900
C           8.26300         7.82400        13.43000
C           7.83000         9.21900        13.85000
O           8.34200        10.15300        12.88800
H           8.18200         9.66700        12.02900
C           8.16600         9.52000        15.30200
O           7.60400        10.74500        15.79500
H           8.06400        11.08100        16.61700
C           8.11100         5.43900        14.08000
O           7.75200         4.73000        12.88500
H           7.90200         3.74600        12.98100
C           7.74000         6.85700        14.48000
O           8.41000         7.11400        15.72300
C           7.85300         8.34300        16.21100
O           8.69600         8.53400        17.35700
C           8.30400         8.29100        18.71500
C           8.84700         6.95700        19.20300
O           8.77300         6.00100        18.13500
H           8.83700         6.38500        17.21300
C           8.25100         6.55500        20.54200
O           8.81900         5.37300        21.12400
H           8.59700         5.15600        22.07500
C           8.33800        10.72100        19.39100
O           8.63000        11.40200        18.16200
H           8.75800        12.33300        18.50200
C           8.83600         9.31900        19.70000
O           8.25300         9.05800        20.98500
C           8.48400         7.73000        21.47800
O           7.62500         7.68000        22.62600

