# freq=raman b3lyp/6-31+g(2d,p) geom=connectivity

400 8690/8690.com

0 1
 O                  9.46700000    7.49700000   12.09700000
 C                 10.28400000    7.78400000   13.24100000
 C                  9.93100000    9.18500000   13.71500000
 O                 10.00100000   10.22000000   12.72400000
 H                  9.82600000    9.74900000   11.86000000
 C                 10.56300000    9.56100000   15.04500000
 O                 10.53700000   10.91500000   15.52000000
 H                 10.67500000   11.02000000   16.50400000
 C                  9.98500000    5.35000000   14.23000000
 O                  9.49300000    4.79700000   13.00100000
 H                  9.48700000    3.80100000   13.08800000
 C                  9.95400000    6.86000000   14.40200000
 O                 10.66000000    7.21700000   15.59900000
 C                 10.27000000    8.50500000   16.09800000
 O                 11.06800000    8.53400000   17.29000000
 C                 10.45000000    8.15100000   18.52800000
 C                 10.72500000    6.73500000   19.00700000
 O                 10.40100000    5.76500000   18.00000000
 H                 10.57800000    6.34400000   17.20400000
 C                  9.98100000    6.37700000   20.28300000
 O                 10.25500000    5.01500000   20.64500000
 H                  9.77800000    4.80300000   21.49800000
 C                 10.55300000   10.57500000   19.40300000
 O                 10.73200000   11.26800000   18.15900000
 H                 10.93800000   12.23600000   18.30000000
 C                 10.93700000    9.11700000   19.59600000
 O                 10.39800000    8.76900000   20.88000000
 C                 10.54100000    7.39400000   21.26400000
 O                  9.84400000    7.44900000   22.51700000
 H                 10.47969531    7.48054607   23.23567678
 H                 11.09098200   11.13170968   20.14161336
 H                  9.51391343   10.65085201   19.64681461
 H                 12.00382926    9.05246692   19.64709606
 H                  9.39162877    8.26926995   18.42425721
 H                 11.77301774    6.65835837   19.20870493
 H                  8.92920343    6.52482804   20.15349773
 H                 11.57442535    7.18165112   21.44243767
 H                 10.02881243    7.30757977   11.34195910
 H                  9.41563228    4.92170667   15.02830146
 H                 11.00029939    5.03216158   14.34421864
 H                  8.92871563    7.07584296   14.61903406
 H                 11.32233595    7.72088320   12.99045117
 H                  8.88663332    9.12008254   13.93857094
 H                 11.60489184    9.41564800   14.84946435
 H                  9.22946527    8.50537540   16.34737387

 1 2 1.0 38 1.0
 2 3 1.0 12 1.0 42 1.0
 3 4 1.0 6 1.0 43 1.0
 4 5 1.0
 5
 6 7 1.0 14 1.0 44 1.0
 7 8 1.0
 8
 9 10 1.0 12 1.0 39 1.0 40 1.0
 10 11 1.0
 11
 12 13 1.0 41 1.0
 13 14 1.0
 14 15 1.0 45 1.0
 15 16 1.0
 16 17 1.0 26 1.0 34 1.0
 17 18 1.0 20 1.0 35 1.0
 18 19 1.0
 19
 20 21 1.0 28 1.0 36 1.0
 21 22 1.0
 22
 23 24 1.0 26 1.0 31 1.0 32 1.0
 24 25 1.0
 25
 26 27 1.0 33 1.0
 27 28 1.0
 28 29 1.0 37 1.0
 29 30 1.0
 30
 31
 32
 33
 34
 35
 36
 37
 38
 39
 40
 41
 42
 43
 44
 45

