# freq=raman b3lyp/6-31+g(2d,p) geom=connectivity

500 9224/9224.com

0 1
 O                  8.54400000    7.16200000   11.85200000
 C                  9.17000000    7.25000000   13.14100000
 C                  9.46200000    8.63100000   13.70500000
 O                 10.19000000    9.54500000   12.87100000
 H                  9.59600000    9.70600000   12.08200000
 C                 10.29600000    8.48100000   14.96700000
 O                 10.61300000    9.82700000   15.34900000
 H                 11.04100000   10.07400000   14.48000000
 C                  8.49100000    4.86300000   13.74300000
 O                  8.23100000    3.83200000   14.70600000
 H                  8.62400000    2.98700000   14.34400000
 C                  8.39800000    6.34100000   14.08400000
 O                  9.07000000    6.46800000   15.34500000
 C                  9.52500000    7.66500000   15.99300000
 O                 10.38500000    7.32900000   17.09100000
 C                  9.69500000    6.99500000   18.30300000
 C                  9.65700000    5.51100000   18.62800000
 O                  9.03000000    4.61900000   17.69500000
 H                  9.47600000    4.73600000   16.80800000
 C                  8.65600000    5.46300000   19.77100000
 O                  8.16100000    4.13200000   19.97900000
 H                  7.83200000    3.84200000   19.08000000
 C                 10.09700000    9.20600000   19.33300000
 O                 10.49000000   10.04000000   20.43300000
 H                 10.30400000   11.01400000   20.30600000
 C                 10.34500000    7.71400000   19.47400000
 O                  9.85700000    7.21900000   20.72900000
 C                  9.53000000    5.84000000   20.95600000
 O                  8.87900000    5.90500000   22.23300000
 H                  9.54038891    5.94037180   22.92791982
 H                 10.41307816    5.23726680   20.99825713
 H                  7.86133248    6.16542020   19.62954546
 H                 10.61497350    5.14909207   18.93817643
 H                  8.68647634    7.34189939   18.21673971
 H                 11.40023992    7.54202821   19.43163956
 H                  9.04950157    9.35055213   19.16944044
 H                 10.61821842    9.54444558   18.46197420
 H                  9.21899285    7.11550504   11.17095458
 H                  9.48218951    4.69574901   13.37629785
 H                  7.82003830    4.69490711   12.92663294
 H                  7.37729505    6.65165636   14.16495692
 H                 10.12898802    6.79069042   13.02151494
 H                  8.53092853    9.08762831   13.96862189
 H                 11.20249846    7.96635263   14.72554891
 H                  8.68630038    8.22694416   16.34754435

 1 2 1.0 38 1.0
 2 3 1.0 12 1.0 42 1.0
 3 4 1.0 6 1.0 43 1.0
 4 5 1.0
 5
 6 7 1.0 14 1.0 44 1.0
 7 8 1.0
 8
 9 10 1.0 12 1.0 39 1.0 40 1.0
 10 11 1.0
 11
 12 13 1.0 41 1.0
 13 14 1.0
 14 15 1.0 45 1.0
 15 16 1.0
 16 17 1.0 26 1.0 34 1.0
 17 18 1.0 20 1.0 33 1.0
 18 19 1.0
 19
 20 21 1.0 28 1.0 32 1.0
 21 22 1.0
 22
 23 24 1.0 26 1.0 36 1.0 37 1.0
 24 25 1.0
 25
 26 27 1.0 35 1.0
 27 28 1.0
 28 29 1.0 31 1.0
 29 30 1.0
 30
 31
 32
 33
 34
 35
 36
 37
 38
 39
 40
 41
 42
 43
 44
 45

