# freq=raman b3lyp/6-31+g(2d,p) geom=connectivity

500 9224/9224.com

0 1
O           8.54400         7.16200        11.85200
C           9.17000         7.25000        13.14100
C           9.46200         8.63100        13.70500
O          10.19000         9.54500        12.87100
H           9.59600         9.70600        12.08200
C          10.29600         8.48100        14.96700
O          10.61300         9.82700        15.34900
H          11.04100        10.07400        14.48000
C           8.49100         4.86300        13.74300
O           8.23100         3.83200        14.70600
H           8.62400         2.98700        14.34400
C           8.39800         6.34100        14.08400
O           9.07000         6.46800        15.34500
C           9.52500         7.66500        15.99300
O          10.38500         7.32900        17.09100
C           9.69500         6.99500        18.30300
C           9.65700         5.51100        18.62800
O           9.03000         4.61900        17.69500
H           9.47600         4.73600        16.80800
C           8.65600         5.46300        19.77100
O           8.16100         4.13200        19.97900
H           7.83200         3.84200        19.08000
C          10.09700         9.20600        19.33300
O          10.49000        10.04000        20.43300
H          10.30400        11.01400        20.30600
C          10.34500         7.71400        19.47400
O           9.85700         7.21900        20.72900
C           9.53000         5.84000        20.95600
O           8.87900         5.90500        22.23300

