# freq=raman b3lyp/6-31+g(2d,p) geom=connectivity

423 9000/9000.com

0 1
 O                  7.71300000    7.47600000   12.63100000
 C                  8.27700000    7.87900000   13.88700000
 C                  7.68700000    9.18800000   14.38700000
 O                  7.84500000   10.23900000   13.42300000
 H                  7.67400000    9.84300000   12.52100000
 C                  8.16600000    9.69000000   15.73900000
 O                  7.38400000   10.79200000   16.22300000
 H                  7.71400000   11.00100000   17.14300000
 C                  8.51100000    5.40400000   14.62900000
 O                  8.13000000    4.67300000   13.45400000
 H                  8.30400000    3.70000000   13.60700000
 C                  8.02300000    6.81000000   14.93700000
 O                  8.58700000    7.23200000   16.18700000
 C                  7.93300000    8.44700000   16.58200000
 O                  8.64200000    8.74500000   17.79400000
 C                  8.19300000    8.24300000   19.06100000
 C                  8.88100000    7.00200000   19.60600000
 O                  8.66800000    5.93400000   18.67200000
 H                  8.63700000    6.33400000   17.75600000
 C                  8.15600000    6.62100000   20.88700000
 O                  8.60100000    5.38700000   21.46800000
 H                  8.28200000    5.31700000   22.41400000
 C                  7.52700000   10.63200000   19.84900000
 O                  7.87000000   11.41700000   18.69800000
 H                  7.60400000   12.37100000   18.83600000
 C                  8.34800000    9.37200000   20.06700000
 O                  7.96500000    8.95700000   21.38700000
 C                  8.52000000    7.72400000   21.86800000
 O                  7.78200000    7.53400000   23.08300000
 H                  8.39341330    7.41965119   23.81423056
 H                  8.41940914    7.27739284   12.01201589
 H                  8.23067009    4.79788121   15.46502342
 H                  9.57993649    5.45104664   14.62116433
 H                  6.96320603    6.75033990   15.07182361
 H                  9.33327375    8.00062483   13.76702846
 H                  6.63450228    9.02201575   14.48496823
 H                  9.20590761    9.93996459   15.70722178
 H                  6.89203554    8.28949045   16.77300714
 H                  7.63140796   11.25048944   20.71587357
 H                  6.49905617   10.34775863   19.76275424
 H                  9.38085812    9.65035590   20.09194196
 H                  7.14961912    8.02304331   18.97225656
 H                  9.92304029    7.17265267   19.77900205
 H                  7.09836235    6.59955988   20.72624266
 H                  9.57417493    7.79179642   22.03834921

 1 2 1.0 31 1.0
 2 3 1.0 12 1.0 35 1.0
 3 4 1.0 6 1.0 36 1.0
 4 5 1.0
 5
 6 7 1.0 14 1.0 37 1.0
 7 8 1.0
 8
 9 10 1.0 12 1.0 32 1.0 33 1.0
 10 11 1.0
 11
 12 13 1.0 34 1.0
 13 14 1.0
 14 15 1.0 38 1.0
 15 16 1.0
 16 17 1.0 26 1.0 42 1.0
 17 18 1.0 20 1.0 43 1.0
 18 19 1.0
 19
 20 21 1.0 28 1.0 44 1.0
 21 22 1.0
 22
 23 24 1.0 26 1.0 39 1.0 40 1.0
 24 25 1.0
 25
 26 27 1.0 41 1.0
 27 28 1.0
 28 29 1.0 45 1.0
 29 30 1.0
 30
 31
 32
 33
 34
 35
 36
 37
 38
 39
 40
 41
 42
 43
 44
 45

