# freq=raman b3lyp/6-31+g(2d,p) geom=connectivity

423 9000.com

0 1
C           8.30400         7.91500        24.36400
C           7.69000         9.26100        24.71500
O           7.91800        10.27400        23.72500
H           7.75000         9.91100        22.80900
C           8.07400         9.66600        26.12900
O           7.62900        10.97100        26.52800
H           8.08400        11.17200        27.39600
C           8.27700         5.42100        25.13300
O           7.78200         4.67800        24.00900
H           7.83200         3.69400        24.17900
C           7.88000         6.86700        25.38000
O           8.52200         7.26900        26.59800
C           7.91300         8.48100        27.06700
O           8.77700         8.68600        28.19400
C           8.10300         8.37600        29.42300
C           8.63600         7.06200        29.97100
O           8.43400         5.97100        29.06000
H           8.59700         6.42800        28.18500
C           8.11300         6.67300        31.34400
O           8.69400         5.49100        31.91500
H           8.35900         5.33200        32.84300
C           7.69800        10.77400        30.25500
O           8.26800        11.43400        29.11500
H           8.15200        12.42200        29.22100
C           8.41200         9.44700        30.45600
O           7.93300         9.09400        31.76200
C           8.41300         7.84100        32.26900
O           7.78100         7.73200        33.55300
C           8.38800         8.01600        34.82200

