# freq=raman b3lyp/6-31+g(2d,p) geom=connectivity

500 9414/9414.com

0 1
 O                  9.04800000    6.84200000   11.91100000
 C                  9.59000000    7.26800000   13.16900000
 C                  8.93300000    8.50100000   13.76800000
 O                  9.08100000    9.55600000   12.80700000
 H                  9.44200000    9.13700000   11.97300000
 C                  9.38500000    8.95600000   15.14600000
 O                  8.68800000   10.14400000   15.54700000
 H                  8.99500000   11.02500000   15.18600000
 C                 10.05700000    4.87900000   13.87300000
 O                  9.99700000    3.68000000   14.66000000
 H                  9.60200000    2.81800000   14.34100000
 C                  9.44000000    6.21500000   14.25400000
 O                 10.10400000    6.60400000   15.46500000
 C                  9.34400000    7.69800000   15.99800000
 O                  9.93400000    8.16300000   17.22100000
 C                  9.31000000    7.60100000   18.38400000
 C                  9.90200000    6.23500000   18.69300000
 O                  9.38400000    5.14700000   17.91400000
 H                  9.90400000    5.10000000   17.06100000
 C                  9.44600000    5.77400000   20.06800000
 O                 10.24500000    4.59200000   20.21900000
 H                 10.19300000    4.22100000   19.29200000
 C                  8.99600000    9.84200000   19.43700000
 O                  9.49300000   10.85400000   20.32400000
 H                  8.90500000   11.66200000   20.35200000
 C                  9.69400000    8.49600000   19.55000000
 O                  9.22500000    8.04600000   20.82900000
 C                  9.74300000    6.75700000   21.18900000
 O                  8.97100000    6.40000000   22.34500000
 H                  9.56186911    6.17674184   23.06793118
 H                 10.78867447    6.80076071   21.41159808
 H                  8.40606687    5.52256962   20.05310549
 H                 10.97036351    6.26248248   18.64061562
 H                  8.24749819    7.54817931   18.26910931
 H                 10.75478794    8.63381941   19.57519446
 H                  7.95472446    9.69957082   19.63789594
 H                  9.10193946   10.19323636   18.43185829
 H                  9.76510027    6.63728559   11.30646777
 H                 11.09713228    5.07206791   13.71253310
 H                  9.64048070    4.62517919   12.92064152
 H                  8.39936925    6.07220273   14.45795241
 H                 10.63201681    7.47097971   13.03520831
 H                  7.88687857    8.28882711   13.84224700
 H                 10.41595317    9.22894266   15.05917910
 H                  8.33077883    7.39862777   16.16729005

 1 2 1.0 38 1.0
 2 3 1.0 12 1.0 42 1.0
 3 4 1.0 6 1.0 43 1.0
 4 5 1.0
 5
 6 7 1.0 14 1.0 44 1.0
 7 8 1.0
 8
 9 10 1.0 12 1.0 39 1.0 40 1.0
 10 11 1.0
 11
 12 13 1.0 41 1.0
 13 14 1.0
 14 15 1.0 45 1.0
 15 16 1.0
 16 17 1.0 26 1.0 34 1.0
 17 18 1.0 20 1.0 33 1.0
 18 19 1.0
 19
 20 21 1.0 28 1.0 32 1.0
 21 22 1.0
 22
 23 24 1.0 26 1.0 36 1.0 37 1.0
 24 25 1.0
 25
 26 27 1.0 35 1.0
 27 28 1.0
 28 29 1.0 31 1.0
 29 30 1.0
 30
 31
 32
 33
 34
 35
 36
 37
 38
 39
 40
 41
 42
 43
 44
 45

