# freq=raman b3lyp/6-31+g(2d,p) geom=connectivity

500 9414/9414.com

0 1
O           9.04800         6.84200        11.91100
C           9.59000         7.26800        13.16900
C           8.93300         8.50100        13.76800
O           9.08100         9.55600        12.80700
H           9.44200         9.13700        11.97300
C           9.38500         8.95600        15.14600
O           8.68800        10.14400        15.54700
H           8.99500        11.02500        15.18600
C          10.05700         4.87900        13.87300
O           9.99700         3.68000        14.66000
H           9.60200         2.81800        14.34100
C           9.44000         6.21500        14.25400
O          10.10400         6.60400        15.46500
C           9.34400         7.69800        15.99800
O           9.93400         8.16300        17.22100
C           9.31000         7.60100        18.38400
C           9.90200         6.23500        18.69300
O           9.38400         5.14700        17.91400
H           9.90400         5.10000        17.06100
C           9.44600         5.77400        20.06800
O          10.24500         4.59200        20.21900
H          10.19300         4.22100        19.29200
C           8.99600         9.84200        19.43700
O           9.49300        10.85400        20.32400
H           8.90500        11.66200        20.35200
C           9.69400         8.49600        19.55000
O           9.22500         8.04600        20.82900
C           9.74300         6.75700        21.18900
O           8.97100         6.40000        22.34500

