# freq=raman b3lyp/6-31+g(2d,p) geom=connectivity

300 7652/7652.com

0 1
 O                  7.71600000    7.57800000   12.27400000
 C                  8.33300000    7.90300000   13.52800000
 C                  7.86400000    9.26400000   14.01500000
 O                  7.86800000   10.26200000   12.98400000
 H                  7.85700000    9.80900000   12.09200000
 C                  8.56500000    9.64700000   15.30800000
 O                  8.07000000   10.91100000   15.77500000
 H                  8.38300000   11.00500000   16.72000000
 C                  8.66100000    5.53900000   14.19100000
 O                  7.83000000    4.93800000   13.18700000
 H                  7.86000000    3.96800000   13.42800000
 C                  8.09300000    6.88000000   14.62700000
 O                  8.69300000    7.21300000   15.88800000
 C                  8.29800000    8.52900000   16.30200000
 O                  8.87500000    8.58800000   17.61400000
 C                  8.08800000    8.23700000   18.76200000
 C                  8.58600000    6.93100000   19.35800000
 O                  8.34700000    5.89800000   18.39100000
 H                  8.93800000    6.18500000   17.63800000
 C                  8.04100000    6.59700000   20.73700000
 O                  8.74100000    5.41100000   21.14100000
 H                  8.54600000    5.11400000   22.07600000
 C                  8.14700000   10.78000000   19.46500000
 O                  8.60300000   11.40000000   18.25400000
 H                  8.51700000   12.36900000   18.48400000
 C                  8.36700000    9.31300000   19.79800000
 O                  7.74300000    8.89100000   21.02000000
 C                  8.28800000    7.75000000   21.69600000
 O                  7.45300000    7.56300000   22.84800000
 H                  8.00289909    7.43691578   23.62473275
 H                  8.39554262    7.40787665   11.61758559
 H                  9.64370351    5.68509779   13.79369754
 H                  8.71670879    4.88782598   15.03821245
 H                  7.03776484    6.77427232   14.76912813
 H                  9.38874116    7.96146341   13.36401028
 H                  6.83491819    9.13455173   14.27793302
 H                  9.61783105    9.72144130   15.13220106
 H                  7.23702083    8.50200151   16.43799371
 H                  8.57902348   11.33830766   20.26908225
 H                  7.09004961   10.94164551   19.50533112
 H                  9.41801981    9.24046748   19.98507324
 H                  7.04634981    8.18674586   18.52254353
 H                  9.64717108    7.02177523   19.46083873
 H                  6.99205916    6.39550824   20.67356357
 H                  9.32161757    7.87081623   21.94487377

 1 2 1.0 31 1.0
 2 3 1.0 12 1.0 35 1.0
 3 4 1.0 6 1.0 36 1.0
 4 5 1.0
 5
 6 7 1.0 14 1.0 37 1.0
 7 8 1.0
 8
 9 10 1.0 12 1.0 32 1.0 33 1.0
 10 11 1.0
 11
 12 13 1.0 34 1.0
 13 14 1.0
 14 15 1.0 38 1.0
 15 16 1.0
 16 17 1.0 26 1.0 42 1.0
 17 18 1.0 20 1.0 43 1.0
 18 19 1.0
 19
 20 21 1.0 28 1.0 44 1.0
 21 22 1.0
 22
 23 24 1.0 26 1.0 39 1.0 40 1.0
 24 25 1.0
 25
 26 27 1.0 41 1.0
 27 28 1.0
 28 29 1.0 45 1.0
 29 30 1.0
 30
 31
 32
 33
 34
 35
 36
 37
 38
 39
 40
 41
 42
 43
 44
 45

