# freq=raman b3lyp/6-31+g(d,p) geom=connectivity

500 7000.com

0 1
O           9.60900         5.69300        22.47600
C          10.28400         5.91100        23.72300
C          10.16400         7.33700        24.23700
O          10.86100         8.11400        23.25200
H          10.61900         7.89800        22.30600
C          10.73900         7.50200        25.63500
O          10.92800         8.90300        25.88400
H          11.19400         9.26300        24.99000
C           9.48600         3.59500        24.38300
O           8.71000         2.65200        25.13600
H           8.62900         1.73800        24.73700
C           9.57500         5.06300        24.76700
O          10.21800         5.16000        26.04600
C          10.08700         6.49200        26.56400
O          11.00700         6.32700        27.65300
C          10.25500         6.01200        28.83400
C          10.38800         4.63900        29.47200
O          10.66700         3.55100        28.58000
H          10.53500         3.77300        27.61400
C           9.43700         4.38500        30.63100
O           9.55300         2.96300        30.77900
H           9.64300         2.72400        29.81200
C          10.17000         8.40600        29.74800
O          10.83400         9.19600        30.74500
H          10.46500        10.12600        30.71800
C          10.46900         6.94000        30.01800
O           9.72000         6.56100        31.18200
C           9.94200         5.26700        31.76200
O           9.19300         5.16700        32.98200

