# freq=raman b3lyp/6-31+g(2d,p) geom=connectivity

400 5151/5151.com

0 1
O           9.20100         7.59000        12.24800
C           9.76200         7.92700        13.52500
C           9.38900         9.33700        13.95500
O           9.88200        10.29900        13.01200
H           9.79000         9.87000        12.11300
C           9.78400         9.76200        15.35900
O           8.94000        10.83300        15.80700
H           9.51900        11.33300        16.45100
C           9.43900         5.49400        14.33400
O           8.81500         4.81500        13.23500
H           8.80500         3.87500        13.57500
C           9.17800         6.97500        14.55700
O           9.71200         7.34100        15.83700
C           9.44000         8.65600        16.34400
O          10.25900         8.64700        17.52200
C           9.58500         8.35000        18.75300
C           9.91000         6.93100        19.19200
O           9.52400         5.91900        18.25100
H           9.70600         6.25900        17.32900
C           9.39000         6.60400        20.58200
O           9.82300         5.36400        21.15900
H           9.46600         5.18000        22.07500
C           9.76100        10.77200        19.66600
O          10.36200        11.55300        18.62200
H          10.18000        12.51900        18.80500
C          10.03200         9.28900        19.86100
O           9.49900         8.99500        21.16000
C           9.61800         7.65400        21.65700
O           8.81600         7.62500        22.84700

