# freq=raman b3lyp/6-31+g(2d,p) geom=connectivity

400 5151/5151.com

0 1
 O                  9.20100000    7.59000000   12.24800000
 C                  9.76200000    7.92700000   13.52500000
 C                  9.38900000    9.33700000   13.95500000
 O                  9.88200000   10.29900000   13.01200000
 H                  9.79000000    9.87000000   12.11300000
 C                  9.78400000    9.76200000   15.35900000
 O                  8.94000000   10.83300000   15.80700000
 H                  9.51900000   11.33300000   16.45100000
 C                  9.43900000    5.49400000   14.33400000
 O                  8.81500000    4.81500000   13.23500000
 H                  8.80500000    3.87500000   13.57500000
 C                  9.17800000    6.97500000   14.55700000
 O                  9.71200000    7.34100000   15.83700000
 C                  9.44000000    8.65600000   16.34400000
 O                 10.25900000    8.64700000   17.52200000
 C                  9.58500000    8.35000000   18.75300000
 C                  9.91000000    6.93100000   19.19200000
 O                  9.52400000    5.91900000   18.25100000
 H                  9.70600000    6.25900000   17.32900000
 C                  9.39000000    6.60400000   20.58200000
 O                  9.82300000    5.36400000   21.15900000
 H                  9.46600000    5.18000000   22.07500000
 C                  9.76100000   10.77200000   19.66600000
 O                 10.36200000   11.55300000   18.62200000
 H                 10.18000000   12.51900000   18.80500000
 C                 10.03200000    9.28900000   19.86100000
 O                  9.49900000    8.99500000   21.16000000
 C                  9.61800000    7.65400000   21.65700000
 O                  8.81600000    7.62500000   22.84700000
 H                  9.38781989    7.60621364   23.61788850
 H                  9.90895050    7.42455484   11.62107577
 H                  9.14801002    4.98317783   15.22802771
 H                 10.49615215    5.37221430   14.22220746
 H                  8.11872946    7.12396313   14.58261079
 H                 10.82660317    7.82396351   13.49494061
 H                  8.32108239    9.38996736   13.91442363
 H                 10.81873379   10.02862387   15.41501508
 H                  8.40940345    8.72859027   16.62239075
 H                 10.01948968   11.25001677   20.58772829
 H                  8.70238687   10.87249951   19.54709633
 H                 11.09396350    9.18042165   19.93410452
 H                  8.52866023    8.44495513   18.61147328
 H                 10.97690158    6.88147909   19.25656542
 H                  8.32854414    6.52114012   20.47548384
 H                 10.63256290    7.53566600   21.97568353

 1 2 1.0 31 1.0
 2 3 1.0 12 1.0 35 1.0
 3 4 1.0 6 1.0 36 1.0
 4 5 1.0
 5
 6 7 1.0 14 1.0 37 1.0
 7 8 1.0
 8
 9 10 1.0 12 1.0 32 1.0 33 1.0
 10 11 1.0
 11
 12 13 1.0 34 1.0
 13 14 1.0
 14 15 1.0 38 1.0
 15 16 1.0
 16 17 1.0 26 1.0 42 1.0
 17 18 1.0 20 1.0 43 1.0
 18 19 1.0
 19
 20 21 1.0 28 1.0 44 1.0
 21 22 1.0
 22
 23 24 1.0 26 1.0 39 1.0 40 1.0
 24 25 1.0
 25
 26 27 1.0 41 1.0
 27 28 1.0
 28 29 1.0 45 1.0
 29 30 1.0
 30
 31
 32
 33
 34
 35
 36
 37
 38
 39
 40
 41
 42
 43
 44
 45

