# freq=raman b3lyp/6-31+g(2d,p) geom=connectivity

473 8479/8479.com

0 1
 O                  7.61700000    7.34300000   12.19800000
 C                  8.05900000    7.79500000   13.48700000
 C                  7.55900000    9.14300000   13.98200000
 O                  7.82600000   10.18300000   13.03000000
 H                  7.87400000    9.79900000   12.10800000
 C                  8.08700000    9.53600000   15.35100000
 O                  7.45600000   10.75600000   15.76500000
 H                  7.73800000   11.05200000   16.67700000
 C                  8.07200000    5.35700000   14.20300000
 O                  7.68300000    4.69400000   12.99200000
 H                  7.92700000    3.73300000   13.12400000
 C                  7.66300000    6.78100000   14.54700000
 O                  8.18000000    7.15500000   15.83300000
 C                  7.74700000    8.42800000   16.33500000
 O                  8.63200000    8.42300000   17.46400000
 C                  8.00700000    8.22500000   18.74100000
 C                  8.50800000    6.87700000   19.23500000
 O                  8.26300000    5.82500000   18.29000000
 H                  8.51500000    6.28700000   17.43900000
 C                  8.10600000    6.53800000   20.66100000
 O                  8.77600000    5.34500000   21.09500000
 H                  8.32200000    5.16400000   21.96700000
 C                  7.60700000   10.59400000   19.61700000
 O                  7.96600000   11.33600000   18.44300000
 H                  7.97100000   12.33400000   18.51100000
 C                  8.34300000    9.27500000   19.78800000
 O                  7.92000000    8.88100000   21.10100000
 C                  8.47200000    7.66100000   21.61700000
 O                  7.65300000    7.42500000   22.77200000
 H                  8.21373909    7.26900742   23.53543827
 H                  9.51724654    7.71935069   21.83825745
 H                  7.04861013    6.37833247   20.69750954
 H                  9.57301094    6.97493326   19.26756961
 H                  6.94568203    8.18201702   18.61193944
 H                  9.39820871    9.45227767   19.79068406
 H                  7.80404864   11.20340990   20.47414141
 H                  6.55698122   10.39159026   19.57970583
 H                  8.37961806    7.15004715   11.64774288
 H                  7.72774295    4.74156908   15.00775578
 H                  9.14149543    5.33594067   14.22821980
 H                  6.59537666    6.79609864   14.61665938
 H                  9.12782498    7.83831835   13.46176753
 H                  6.49539990    9.06586411   14.06977741
 H                  9.14751573    9.67120507   15.30711404
 H                  6.71639614    8.42417821   16.62264748

 1 2 1.0 38 1.0
 2 3 1.0 12 1.0 42 1.0
 3 4 1.0 6 1.0 43 1.0
 4 5 1.0
 5
 6 7 1.0 14 1.0 44 1.0
 7 8 1.0
 8
 9 10 1.0 12 1.0 39 1.0 40 1.0
 10 11 1.0
 11
 12 13 1.0 41 1.0
 13 14 1.0
 14 15 1.0 45 1.0
 15 16 1.0
 16 17 1.0 26 1.0 34 1.0
 17 18 1.0 20 1.0 33 1.0
 18 19 1.0
 19
 20 21 1.0 28 1.0 32 1.0
 21 22 1.0
 22
 23 24 1.0 26 1.0 36 1.0 37 1.0
 24 25 1.0
 25
 26 27 1.0 35 1.0
 27 28 1.0
 28 29 1.0 31 1.0
 29 30 1.0
 30
 31
 32
 33
 34
 35
 36
 37
 38
 39
 40
 41
 42
 43
 44
 45

