# freq=raman b3lyp/6-31+g(2d,p) geom=connectivity

473 8479/8479.com

0 1
O           7.61700         7.34300        12.19800
C           8.05900         7.79500        13.48700
C           7.55900         9.14300        13.98200
O           7.82600        10.18300        13.03000
H           7.87400         9.79900        12.10800
C           8.08700         9.53600        15.35100
O           7.45600        10.75600        15.76500
H           7.73800        11.05200        16.67700
C           8.07200         5.35700        14.20300
O           7.68300         4.69400        12.99200
H           7.92700         3.73300        13.12400
C           7.66300         6.78100        14.54700
O           8.18000         7.15500        15.83300
C           7.74700         8.42800        16.33500
O           8.63200         8.42300        17.46400
C           8.00700         8.22500        18.74100
C           8.50800         6.87700        19.23500
O           8.26300         5.82500        18.29000
H           8.51500         6.28700        17.43900
C           8.10600         6.53800        20.66100
O           8.77600         5.34500        21.09500
H           8.32200         5.16400        21.96700
C           7.60700        10.59400        19.61700
O           7.96600        11.33600        18.44300
H           7.97100        12.33400        18.51100
C           8.34300         9.27500        19.78800
O           7.92000         8.88100        21.10100
C           8.47200         7.66100        21.61700
O           7.65300         7.42500        22.77200

