# freq=raman b3lyp/6-31+g(df,p) geom=connectivity

280 5000.com

0 1
 O                  7.63000000    7.47000000   12.17500000
 C                  8.11200000    7.74600000   13.49800000
 C                  7.67300000    9.13900000   13.92000000
 O                  8.18700000   10.17400000   13.07000000
 H                  8.16600000    9.90700000   12.10600000
 C                  8.05400000    9.50000000   15.34600000
 O                  7.52000000   10.76800000   15.75600000
 H                  7.82500000   10.95100000   16.69100000
 C                  8.42800000    5.39800000   14.34200000
 O                  7.98400000    4.64400000   13.20500000
 H                  8.24800000    3.68500000   13.30800000
 C                  7.78900000    6.75300000   14.60200000
 O                  8.19500000    7.19000000   15.90700000
 C                  7.67300000    8.44400000   16.37100000
 O                  8.53200000    8.72900000   17.48400000
 C                  8.14100000    8.34000000   18.80900000
 C                  8.92200000    7.17300000   19.39000000
 O                  8.88100000    5.98400000   18.58700000
 H                  8.89500000    6.31000000   17.64100000
 C                  8.37500000    6.73900000   20.74100000
 O                  9.14000000    5.65500000   21.28800000
 H                  8.84000000    5.38900000   22.20400000
 C                  7.84200000   10.78700000   19.41500000
 O                  8.22200000   11.46400000   18.20800000
 H                  7.90400000   12.40200000   18.34000000
 C                  8.43000000    9.44300000   19.81300000
 O                  7.80600000    9.10300000   21.06000000
 C                  8.43400000    7.95500000   21.65000000
 O                  7.77401219    7.64656353   22.88052145
 H                  8.37500707    7.34635578   11.58231410
 H                  6.60542549    9.17012641   13.85507067
 H                  9.17921123    7.77329268   13.42578293
 H                  9.12016816    9.58734461   15.36958753
 H                  6.72775395    6.61734740   14.61797486
 H                  8.27106213    4.79441316   15.21145583
 H                  9.48149742    5.55238559   14.23613087
 H                  6.63213978    8.42317176   16.61813596
 H                  8.04486469   11.46085508   20.22101815
 H                  9.48670546    9.53769620   19.95194675
 H                  7.09576652    8.11140550   18.82046829
 H                  9.94258944    7.47052069   19.51156739
 H                  7.35651851    6.43112603   20.62782281
 H                  9.45858815    8.18642233   21.85386963
 H                  6.78087684   10.65639876   19.37186130
 H                  8.42925617    7.47597875   23.56107722

 1 2 1.0 30 1.0
 2 3 1.0 12 1.0 32 1.0
 3 4 1.0 6 1.0 31 1.0
 4 5 1.0
 5
 6 7 1.0 14 1.0 33 1.0
 7 8 1.0
 8
 9 10 1.0 12 1.0 35 1.0 36 1.0
 10 11 1.0
 11
 12 13 1.0 34 1.0
 13 14 1.0
 14 15 1.0 37 1.0
 15 16 1.0
 16 17 1.0 26 1.0 40 1.0
 17 18 1.0 20 1.0 41 1.0
 18 19 1.0
 19
 20 21 1.0 28 1.0 42 1.0
 21 22 1.0
 22
 23 24 1.0 26 1.0 38 1.0 44 1.0
 24 25 1.0
 25
 26 27 1.0 39 1.0
 27 28 1.0
 28 29 1.0 43 1.0
 29 45 1.0
 30
 31
 32
 33
 34
 35
 36
 37
 38
 39
 40
 41
 42
 43
 44
 45

