# freq=raman b3lyp/6-31+g(2d,p) geom=connectivity

280 7386/7386.com

0 1
O           7.71300         7.64500        12.33800
C           8.20800         8.13200        13.59300
C           7.55400         9.39600        14.12800
O           7.63500        10.47300        13.18300
H           7.44700        10.04200        12.30000
C           8.01400         9.75300        15.53200
O           7.40000        10.91400        16.11000
H           7.85700        11.10100        16.97900
C           8.51700         5.69800        14.44500
O           8.19500         4.95500        13.26100
H           8.33300         3.97300        13.38600
C           7.97000         7.09700        14.68100
O           8.36200         7.47700        16.00800
C           7.78300         8.66400        16.56700
O           8.69200         8.84500        17.66200
C           8.13800         8.54800        18.95200
C           8.66300         7.19100        19.39300
O           8.20800         6.18100        18.48100
H           8.39800         6.52300        17.56000
C           8.26100         6.71600        20.77900
O           8.86300         5.48100        21.19300
H           8.51400         5.07600        22.03800
C           7.81200        10.98200        19.79200
O           8.16300        11.59300        18.54100
H           8.07900        12.56900        18.74100
C           8.38100         9.59300        20.02900
O           7.81700         9.07100        21.24100
C           8.41400         7.87100        21.75500
O           7.60300         7.37800        22.83100

