# freq=raman b3lyp/6-31+g(2d,p) geom=connectivity

280 7386/7386.com

0 1
 O                  7.71300000    7.64500000   12.33800000
 C                  8.20800000    8.13200000   13.59300000
 C                  7.55400000    9.39600000   14.12800000
 O                  7.63500000   10.47300000   13.18300000
 H                  7.44700000   10.04200000   12.30000000
 C                  8.01400000    9.75300000   15.53200000
 O                  7.40000000   10.91400000   16.11000000
 H                  7.85700000   11.10100000   16.97900000
 C                  8.51700000    5.69800000   14.44500000
 O                  8.19500000    4.95500000   13.26100000
 H                  8.33300000    3.97300000   13.38600000
 C                  7.97000000    7.09700000   14.68100000
 O                  8.36200000    7.47700000   16.00800000
 C                  7.78300000    8.66400000   16.56700000
 O                  8.69200000    8.84500000   17.66200000
 C                  8.13800000    8.54800000   18.95200000
 C                  8.66300000    7.19100000   19.39300000
 O                  8.20800000    6.18100000   18.48100000
 H                  8.39800000    6.52300000   17.56000000
 C                  8.26100000    6.71600000   20.77900000
 O                  8.86300000    5.48100000   21.19300000
 H                  8.51400000    5.07600000   22.03800000
 C                  7.81200000   10.98200000   19.79200000
 O                  8.16300000   11.59300000   18.54100000
 H                  8.07900000   12.56900000   18.74100000
 C                  8.38100000    9.59300000   20.02900000
 O                  7.81700000    9.07100000   21.24100000
 C                  8.41400000    7.87100000   21.75500000
 O                  7.60300000    7.37800000   22.83100000
 H                  8.16875205    7.05494112   23.53609402
 H                  8.15011014   11.62020697   20.58147665
 H                  6.74516321   10.91897719   19.84479578
 H                  9.43794871    9.68762103   20.16613598
 H                  7.07874160    8.45799857   18.83046242
 H                  9.73173839    7.22116905   19.35071438
 H                  7.21080240    6.51825252   20.72532567
 H                  9.43151314    8.01572639   22.05269327
 H                  8.20979115    5.10098276   15.27812252
 H                  9.58373460    5.77228241   14.48320239
 H                  8.45205054    7.42334566   11.76679631
 H                  6.90708424    6.98106124   14.72184474
 H                  9.26065329    8.30167164   13.50337525
 H                  6.51235398    9.16783319   14.21639393
 H                  9.06730513    9.93528883   15.48489293
 H                  6.76182966    8.54581793   16.86389079

 1 2 1.0 40 1.0
 2 3 1.0 12 1.0 42 1.0
 3 4 1.0 6 1.0 43 1.0
 4 5 1.0
 5
 6 7 1.0 14 1.0 44 1.0
 7 8 1.0
 8
 9 10 1.0 12 1.0 38 1.0 39 1.0
 10 11 1.0
 11
 12 13 1.0 41 1.0
 13 14 1.0
 14 15 1.0 45 1.0
 15 16 1.0
 16 17 1.0 26 1.0 34 1.0
 17 18 1.0 20 1.0 35 1.0
 18 19 1.0
 19
 20 21 1.0 28 1.0 36 1.0
 21 22 1.0
 22
 23 24 1.0 26 1.0 31 1.0 32 1.0
 24 25 1.0
 25
 26 27 1.0 33 1.0
 27 28 1.0
 28 29 1.0 37 1.0
 29 30 1.0
 30
 31
 32
 33
 34
 35
 36
 37
 38
 39
 40
 41
 42
 43
 44
 45

