# freq=raman b3lyp/6-31+g(2d,p) geom=connectivity

450 5281/5281.com

0 1
 O                 10.24000000    7.87100000   11.23700000
 C                 11.11800000    7.78900000   12.36900000
 C                 11.54600000    9.17800000   12.81400000
 O                 12.53800000    9.81100000   11.99300000
 H                 12.03700000    9.94000000   11.13700000
 C                 12.15000000    9.08200000   14.20500000
 O                 12.50100000   10.33700000   14.80700000
 H                 12.41000000   11.07100000   14.13400000
 C                 10.37700000    5.62200000   13.15300000
 O                  9.39800000    4.85700000   13.87000000
 H                  9.49300000    3.92600000   13.51900000
 C                 10.28300000    7.11100000   13.44300000
 O                 10.65200000    7.27300000   14.82000000
 C                 11.15200000    8.55600000   15.22400000
 O                 11.94600000    8.30800000   16.39300000
 C                 11.05000000    8.41600000   17.51000000
 C                 10.57100000    7.06600000   18.01800000
 O                  9.74200000    6.34200000   17.09800000
 H                  9.86800000    6.73100000   16.18500000
 C                  9.83000000    7.09400000   19.34600000
 O                  9.15500000    5.90900000   19.79000000
 H                  8.38800000    5.83900000   19.15200000
 C                 12.27300000   10.35300000   18.20900000
 O                 12.72500000   11.21800000   19.26100000
 H                 13.61400000   10.88500000   19.57300000
 C                 11.89400000    8.95000000   18.65500000
 O                 11.17900000    8.97400000   19.89900000
 C                 10.77300000    7.68500000   20.38200000
 O                 10.23500000    7.72800000   21.71100000
 H                 10.95400116    7.74857071   22.34677841
 H                 10.76008990    7.92929845   10.43219705
 H                 11.35239794    5.27784485   13.42696365
 H                 10.23704018    5.46512307   12.10385707
 H                  9.26492189    7.41881574   13.32609648
 H                 11.97449947    7.19284482   12.13255197
 H                 10.68149217    9.80711150   12.85577251
 H                 13.00811243    8.44329290   14.18058085
 H                 10.36466291    9.25476991   15.41562702
 H                 11.41862192   10.80209121   17.74720439
 H                 13.05110647   10.27571410   17.47860476
 H                 12.77710521    8.35482301   18.75887269
 H                 10.22950897    9.06812622   17.29453340
 H                 11.44870111    6.47331088   18.17051350
 H                  9.05492283    7.82061211   19.21875920
 H                 11.64446997    7.06489304   20.41212382

 1 2 1.0 31 1.0
 2 3 1.0 12 1.0 35 1.0
 3 4 1.0 6 1.0 36 1.0
 4 5 1.0
 5
 6 7 1.0 14 1.0 37 1.0
 7 8 1.0
 8
 9 10 1.0 12 1.0 32 1.0 33 1.0
 10 11 1.0
 11
 12 13 1.0 34 1.0
 13 14 1.0
 14 15 1.0 38 1.0
 15 16 1.0
 16 17 1.0 26 1.0 42 1.0
 17 18 1.0 20 1.0 43 1.0
 18 19 1.0
 19
 20 21 1.0 28 1.0 44 1.0
 21 22 1.0
 22
 23 24 1.0 26 1.0 39 1.0 40 1.0
 24 25 1.0
 25
 26 27 1.0 41 1.0
 27 28 1.0
 28 29 1.0 45 1.0
 29 30 1.0
 30
 31
 32
 33
 34
 35
 36
 37
 38
 39
 40
 41
 42
 43
 44
 45

