# freq=raman b3lyp/6-31+g(2d,p) geom=connectivity

300 8972/8972.com

0 1
O           7.61300         7.40000        12.20800
C           8.05000         7.87800        13.48900
C           7.49700         9.23200        13.90000
O           7.68300        10.21600        12.87200
H           7.47300         9.90500        11.94500
C           8.00700         9.72600        15.24400
O           7.47400        10.88300        15.90400
H           7.90500        11.05600        16.79000
C           8.33400         5.54900        14.41400
O           7.76600         4.74600        13.36800
H           8.06700         3.79400        13.32200
C           7.71800         6.92300        14.62400
O           8.37100         7.33100        15.83500
C           7.79800         8.58600        16.22800
O           8.51700         8.88700        17.43300
C           8.06200         8.47200        18.72900
C           8.55600         7.13600        19.26000
O           8.10600         6.02300        18.47400
H           8.36500         6.31200        17.55200
C           8.21400         6.81000        20.70500
O           9.09900         5.76600        21.13400
H           8.58300         5.34500        21.88100
C           7.51600        10.85100        19.42800
O           7.95800        11.58300        18.27600
H           7.98800        12.55000        18.52900
C           8.26100         9.56900        19.76300
O           7.76400         9.19600        21.05600
C           8.41700         8.03300        21.58500
O           7.74700         7.73200        22.81800

