# freq=raman b3lyp/6-31+g(2d,p) geom=connectivity

300 8972/8972.com

0 1
 O                  7.61300000    7.40000000   12.20800000
 C                  8.05000000    7.87800000   13.48900000
 C                  7.49700000    9.23200000   13.90000000
 O                  7.68300000   10.21600000   12.87200000
 H                  7.47300000    9.90500000   11.94500000
 C                  8.00700000    9.72600000   15.24400000
 O                  7.47400000   10.88300000   15.90400000
 H                  7.90500000   11.05600000   16.79000000
 C                  8.33400000    5.54900000   14.41400000
 O                  7.76600000    4.74600000   13.36800000
 H                  8.06700000    3.79400000   13.32200000
 C                  7.71800000    6.92300000   14.62400000
 O                  8.37100000    7.33100000   15.83500000
 C                  7.79800000    8.58600000   16.22800000
 O                  8.51700000    8.88700000   17.43300000
 C                  8.06200000    8.47200000   18.72900000
 C                  8.55600000    7.13600000   19.26000000
 O                  8.10600000    6.02300000   18.47400000
 H                  8.36500000    6.31200000   17.55200000
 C                  8.21400000    6.81000000   20.70500000
 O                  9.09900000    5.76600000   21.13400000
 H                  8.58300000    5.34500000   21.88100000
 C                  7.51600000   10.85100000   19.42800000
 O                  7.95800000   11.58300000   18.27600000
 H                  7.98800000   12.55000000   18.52900000
 C                  8.26100000    9.56900000   19.76300000
 O                  7.76400000    9.19600000   21.05600000
 C                  8.41700000    8.03300000   21.58500000
 O                  7.74700000    7.73200000   22.81800000
 H                  8.37771125    7.19710640   11.66426212
 H                  8.24901919    5.00497793   15.33145204
 H                  9.37402724    5.68217465   14.20067429
 H                  6.66024841    6.84919724   14.76757829
 H                  9.11540621    7.96760371   13.44680058
 H                  6.44014974    9.10445682   14.00816773
 H                  9.06138483    9.87808915   15.14379258
 H                  6.75619539    8.46633651   16.44065890
 H                  8.39803008    7.56468169   23.50339362
 H                  9.45762700    8.21850449   21.75108293
 H                  7.19927993    6.47732048   20.77258334
 H                  9.62362321    7.15491219   19.19127583
 H                  7.00238875    8.36014628   18.63095538
 H                  9.30596924    9.78519500   19.84173380
 H                  7.58424952   11.50080127   20.27534899
 H                  6.48528833   10.60289926   19.28315705

 1 2 1.0 30 1.0
 2 3 1.0 12 1.0 34 1.0
 3 4 1.0 6 1.0 35 1.0
 4 5 1.0
 5
 6 7 1.0 14 1.0 36 1.0
 7 8 1.0
 8
 9 10 1.0 12 1.0 31 1.0 32 1.0
 10 11 1.0
 11
 12 13 1.0 33 1.0
 13 14 1.0
 14 15 1.0 37 1.0
 15 16 1.0
 16 17 1.0 26 1.0 42 1.0
 17 18 1.0 20 1.0 41 1.0
 18 19 1.0
 19
 20 21 1.0 28 1.0 40 1.0
 21 22 1.0
 22
 23 24 1.0 26 1.0 44 1.0 45 1.0
 24 25 1.0
 25
 26 27 1.0 43 1.0
 27 28 1.0
 28 29 1.0 39 1.0
 29 38 1.0
 30
 31
 32
 33
 34
 35
 36
 37
 38
 39
 40
 41
 42
 43
 44
 45

