# freq=raman b3lyp/6-31+g(2d,p) geom=connectivity

350 5578/5578.com

0 1
 O                  7.62400000    7.51500000   12.41100000
 C                  8.25800000    7.85700000   13.65200000
 C                  7.65700000    9.15200000   14.17300000
 O                  7.76700000   10.27500000   13.28700000
 H                  7.76200000    9.92300000   12.35100000
 C                  8.42200000    9.59300000   15.41100000
 O                  7.82100000   10.77500000   15.95800000
 H                  8.32900000   10.97200000   16.79600000
 C                  8.53600000    5.40800000   14.30700000
 O                  7.79500000    4.77200000   13.25500000
 H                  8.05000000    3.80600000   13.21400000
 C                  8.07700000    6.79600000   14.72500000
 O                  8.70500000    7.14400000   15.96700000
 C                  8.28800000    8.44700000   16.40000000
 O                  9.17000000    8.59000000   17.52400000
 C                  8.58400000    8.22600000   18.78200000
 C                  9.29500000    6.96300000   19.24100000
 O                  8.80500000    5.97600000   18.32200000
 H                  8.95500000    6.29800000   17.38700000
 C                  8.91300000    6.50100000   20.63700000
 O                  9.63600000    5.34300000   21.08200000
 H                  9.32100000    5.01700000   21.97300000
 C                  8.07600000   10.56300000   19.55500000
 O                  8.38800000   11.48100000   18.49700000
 H                  8.09600000   12.39500000   18.77900000
 C                  8.89200000    9.30500000   19.80700000
 O                  8.57900000    8.90200000   21.14800000
 C                  9.06000000    7.64000000   21.63200000
 O                  8.29800000    7.39300000   22.82300000
 H                  8.89512808    7.24035598   23.55902844
 H                  8.09302156   11.12647895   20.46445134
 H                  7.06593212   10.24666418   19.39817359
 H                  9.93236878    9.54884813   19.75158441
 H                  7.53005301    8.06647733   18.68900400
 H                 10.35588872    7.06954105   19.15119952
 H                  7.87690205    6.23521695   20.60942461
 H                 10.09251224    7.73958149   21.89449192
 H                  8.29457104    7.33248448   11.74871414
 H                  8.49527101    4.77432733   15.16822012
 H                  9.55689415    5.47886484   13.99450472
 H                  7.02646734    6.72946564   14.91697478
 H                  9.30392443    8.00280707   13.47971421
 H                  6.62913334    8.99394436   14.42481053
 H                  9.45091358    9.76771395   15.17496636
 H                  7.27727663    8.39720582   16.74764752

 1 2 1.0 38 1.0
 2 3 1.0 12 1.0 42 1.0
 3 4 1.0 6 1.0 43 1.0
 4 5 1.0
 5
 6 7 1.0 14 1.0 44 1.0
 7 8 1.0
 8
 9 10 1.0 12 1.0 39 1.0 40 1.0
 10 11 1.0
 11
 12 13 1.0 41 1.0
 13 14 1.0
 14 15 1.0 45 1.0
 15 16 1.0
 16 17 1.0 26 1.0 34 1.0
 17 18 1.0 20 1.0 35 1.0
 18 19 1.0
 19
 20 21 1.0 28 1.0 36 1.0
 21 22 1.0
 22
 23 24 1.0 26 1.0 31 1.0 32 1.0
 24 25 1.0
 25
 26 27 1.0 33 1.0
 27 28 1.0
 28 29 1.0 37 1.0
 29 30 1.0
 30
 31
 32
 33
 34
 35
 36
 37
 38
 39
 40
 41
 42
 43
 44
 45

