# freq=raman b3lyp/6-31+g(2d,p) geom=connectivity

350 5578/5578.com

0 1
O           7.62400         7.51500        12.41100
C           8.25800         7.85700        13.65200
C           7.65700         9.15200        14.17300
O           7.76700        10.27500        13.28700
H           7.76200         9.92300        12.35100
C           8.42200         9.59300        15.41100
O           7.82100        10.77500        15.95800
H           8.32900        10.97200        16.79600
C           8.53600         5.40800        14.30700
O           7.79500         4.77200        13.25500
H           8.05000         3.80600        13.21400
C           8.07700         6.79600        14.72500
O           8.70500         7.14400        15.96700
C           8.28800         8.44700        16.40000
O           9.17000         8.59000        17.52400
C           8.58400         8.22600        18.78200
C           9.29500         6.96300        19.24100
O           8.80500         5.97600        18.32200
H           8.95500         6.29800        17.38700
C           8.91300         6.50100        20.63700
O           9.63600         5.34300        21.08200
H           9.32100         5.01700        21.97300
C           8.07600        10.56300        19.55500
O           8.38800        11.48100        18.49700
H           8.09600        12.39500        18.77900
C           8.89200         9.30500        19.80700
O           8.57900         8.90200        21.14800
C           9.06000         7.64000        21.63200
O           8.29800         7.39300        22.82300

