# freq=raman b3lyp/6-31+g(d,p) geom=connectivity

280 7000.com

0 1
 O                  7.68900000    7.58600000   22.68400000
 C                  8.45200000    7.98600000   23.83200000
 C                  7.84000000    9.28500000   24.33100000
 O                  7.94800000   10.33000000   23.35400000
 H                  7.65800000    9.82900000   22.53800000
 C                  8.38800000    9.68700000   25.69100000
 O                  7.83000000   10.91800000   26.17100000
 H                  8.14800000   10.98200000   27.11700000
 C                  8.83500000    5.57200000   24.67200000
 O                  8.28800000    4.78900000   23.60100000
 H                  8.41100000    3.80700000   23.74500000
 C                  8.18700000    6.93000000   24.89200000
 O                  8.73900000    7.36700000   26.14200000
 C                  8.14700000    8.55800000   26.68000000
 O                  8.84300000    8.77100000   27.91600000
 C                  8.18600000    8.34100000   29.11700000
 C                  8.72100000    7.04500000   29.70500000
 O                  8.54800000    6.02800000   28.70700000
 H                  9.09500000    6.34800000   27.93400000
 C                  8.13900000    6.66100000   31.05500000
 O                  8.91200000    5.66500000   31.74000000
 H                  8.48400000    5.45500000   32.61900000
 C                  7.78300000   10.74400000   29.92100000
 O                  8.24100000   11.48700000   28.78200000
 H                  8.14600000   12.44400000   29.05400000
 C                  8.46300000    9.40700000   30.16500000
 O                  7.86600000    9.05000000   31.42000000
 C                  8.24400000    7.81300000   32.04200000
 O                  7.44500000    7.56600000   33.20800000
 H                  8.01861219    7.40647238   33.96107370
 H                  8.28550274    7.33850730   21.97369595
 H                  8.74479908    5.00858777   25.57716874
 H                  9.87526153    5.72658807   24.47487444
 H                  7.13044092    6.80064758   25.00086165
 H                  9.49412381    8.08645356   23.61112212
 H                  6.79487837    9.09924075   24.46558933
 H                  9.44515503    9.82076399   25.59388960
 H                  7.10023901    8.41745125   26.85157353
 H                  7.92234660   11.35093979   30.79111874
 H                  6.73462781   10.56629433   29.80168345
 H                  9.51734191    9.54496028   30.28428995
 H                  7.13244404    8.25931565   28.94893003
 H                  9.77393315    7.17411292   29.84486294
 H                  7.12197008    6.34443910   30.95331745
 H                  9.26539927    7.89445051   32.35023586

 1 2 1.0 31 1.0
 2 3 1.0 12 1.0 35 1.0
 3 4 1.0 6 1.0 36 1.0
 4 5 1.0
 5
 6 7 1.0 14 1.0 37 1.0
 7 8 1.0
 8
 9 10 1.0 12 1.0 32 1.0 33 1.0
 10 11 1.0
 11
 12 13 1.0 34 1.0
 13 14 1.0
 14 15 1.0 38 1.0
 15 16 1.0
 16 17 1.0 26 1.0 42 1.0
 17 18 1.0 20 1.0 43 1.0
 18 19 1.0
 19
 20 21 1.0 28 1.0 44 1.0
 21 22 1.0
 22
 23 24 1.0 26 1.0 39 1.0 40 1.0
 24 25 1.0
 25
 26 27 1.0 41 1.0
 27 28 1.0
 28 29 1.0 45 1.0
 29 30 1.0
 30
 31
 32
 33
 34
 35
 36
 37
 38
 39
 40
 41
 42
 43
 44
 45

