# freq=raman b3lyp/6-31+g(d,p) geom=connectivity

400 6000.com

0 1
 O                  8.85600000    7.28100000   22.71700000
 C                  9.51200000    7.61400000   23.94900000
 C                  9.29900000    9.06600000   24.34500000
 O                  9.41000000   10.02100000   23.28000000
 H                  9.22800000    9.47600000   22.46200000
 C                 10.04200000    9.27700000   25.65400000
 O                  9.78500000   10.61600000   26.10200000
 H                 10.10700000   10.69000000   27.04600000
 C                  9.07600000    5.25000000   24.90200000
 O                  8.60400000    4.50100000   23.77200000
 H                  8.66300000    3.52300000   23.97300000
 C                  9.05700000    6.75400000   25.11800000
 O                  9.85100000    6.90700000   26.30300000
 C                  9.59400000    8.26300000   26.69400000
 O                 10.20100000    8.21400000   27.99400000
 C                  9.34600000    7.99900000   29.12600000
 C                  9.77100000    6.62700000   29.62400000
 O                  9.62800000    5.66700000   28.56800000
 H                  9.91200000    6.15000000   27.73900000
 C                  9.32900000    6.30100000   31.04200000
 O                 10.15300000    5.28500000   31.63400000
 H                  9.70600000    5.05800000   32.49900000
 C                  9.73800000   10.42000000   29.74100000
 O                 10.36900000   11.08400000   28.63700000
 H                 10.04800000   12.02200000   28.76300000
 C                  9.78300000    8.97400000   30.20700000
 O                  8.96500000    8.78800000   31.37100000
 C                  9.41300000    7.53900000   31.91800000
 O                  8.50600000    7.57000000   33.03000000
 H                  9.00527313    7.59284958   33.84963665
 H                 10.05759477   10.97805119   30.59618305
 H                  8.69542926   10.61423903   29.59881193
 H                 10.79374307    8.74337209   30.47178144
 H                  8.30409781    8.06053620   28.89030288
 H                 10.83247649    6.71680151   29.72451538
 H                  8.31565328    5.95814215   31.02016124
 H                 10.41512549    7.64965169   32.27633045
 H                  9.51468585    7.09877288   22.04281440
 H                  8.54424970    4.84697947   25.73849033
 H                 10.10427177    4.97219020   25.00387683
 H                  8.05324251    7.03758303   25.35664527
 H                 10.56211588    7.45902761   23.81431447
 H                  8.26659911    9.11733946   24.62142840
 H                 11.09182387    9.16114966   25.48268583
 H                  8.53843883    8.37710701   26.82692931

 1 2 1.0 38 1.0
 2 3 1.0 12 1.0 42 1.0
 3 4 1.0 6 1.0 43 1.0
 4 5 1.0
 5
 6 7 1.0 14 1.0 44 1.0
 7 8 1.0
 8
 9 10 1.0 12 1.0 39 1.0 40 1.0
 10 11 1.0
 11
 12 13 1.0 41 1.0
 13 14 1.0
 14 15 1.0 45 1.0
 15 16 1.0
 16 17 1.0 26 1.0 34 1.0
 17 18 1.0 20 1.0 35 1.0
 18 19 1.0
 19
 20 21 1.0 28 1.0 36 1.0
 21 22 1.0
 22
 23 24 1.0 26 1.0 31 1.0 32 1.0
 24 25 1.0
 25
 26 27 1.0 33 1.0
 27 28 1.0
 28 29 1.0 37 1.0
 29 30 1.0
 30
 31
 32
 33
 34
 35
 36
 37
 38
 39
 40
 41
 42
 43
 44
 45

