# freq=raman b3lyp/6-31+g(2d,p) geom=connectivity

320 5621/5621.com

0 1
 O                  7.58600000    7.70500000   12.38000000
 C                  8.09000000    8.12700000   13.65600000
 C                  7.51300000    9.48200000   14.03100000
 O                  7.91900000   10.46100000   13.06400000
 H                  7.73800000   10.01900000   12.18600000
 C                  7.90300000    9.76900000   15.47200000
 O                  7.19900000   10.90500000   15.99500000
 H                  7.32900000   11.03400000   16.97900000
 C                  8.65400000    5.72700000   14.34000000
 O                  8.22200000    4.99600000   13.18300000
 H                  8.31300000    4.01800000   13.37400000
 C                  7.90300000    7.00800000   14.66800000
 O                  8.39800000    7.40700000   15.95500000
 C                  7.66600000    8.56800000   16.37300000
 O                  8.21500000    8.85300000   17.66800000
 C                  7.67700000    8.42300000   18.92700000
 C                  8.47100000    7.18200000   19.29800000
 O                  8.20500000    6.00100000   18.52700000
 H                  8.29600000    6.31400000   17.58200000
 C                  8.14700000    6.77100000   20.72500000
 O                  8.69200000    5.50900000   21.13800000
 H                  8.37600000    5.34200000   22.07200000
 C                  7.19700000   10.86300000   19.69600000
 O                  7.30800000   11.63300000   18.49000000
 H                  7.28600000   12.59100000   18.77400000
 C                  7.95900000    9.56200000   19.89300000
 O                  7.68500000    9.11700000   21.23000000
 C                  8.39400000    7.94500000   21.65800000
 O                  7.55700000    7.66600000   22.78900000
 H                  8.10531154    7.47726874   23.55407187
 H                  9.42011636    8.11366595   21.91006548
 H                  7.08695490    6.62595435   20.73789006
 H                  9.51458221    7.40890022   19.23202681
 H                  6.62975208    8.21543634   18.85566199
 H                  9.00332383    9.78653377   19.83077204
 H                  7.47799050   11.50940573   20.50104905
 H                  6.15926216   10.63401093   19.82075647
 H                  8.57892789    5.07653353   15.18626092
 H                  9.68556186    5.97673759   14.20431188
 H                  6.85938990    6.78672885   14.75056528
 H                  8.32110466    7.51112991   11.79379566
 H                  9.14505408    8.26451537   13.54264037
 H                  6.44636845    9.40742330   13.99055918
 H                  8.94913413    9.99295705   15.49061808
 H                  6.62111632    8.34962294   16.44668544

 1 2 1.0 41 1.0
 2 3 1.0 12 1.0 42 1.0
 3 4 1.0 6 1.0 43 1.0
 4 5 1.0
 5
 6 7 1.0 14 1.0 44 1.0
 7 8 1.0
 8
 9 10 1.0 12 1.0 38 1.0 39 1.0
 10 11 1.0
 11
 12 13 1.0 40 1.0
 13 14 1.0
 14 15 1.0 45 1.0
 15 16 1.0
 16 17 1.0 26 1.0 34 1.0
 17 18 1.0 20 1.0 33 1.0
 18 19 1.0
 19
 20 21 1.0 28 1.0 32 1.0
 21 22 1.0
 22
 23 24 1.0 26 1.0 36 1.0 37 1.0
 24 25 1.0
 25
 26 27 1.0 35 1.0
 27 28 1.0
 28 29 1.0 31 1.0
 29 30 1.0
 30
 31
 32
 33
 34
 35
 36
 37
 38
 39
 40
 41
 42
 43
 44
 45

