# freq=raman b3lyp/6-31+g(d,p) geom=connectivity

320 9000.com

0 1
 O                  7.70900000    7.46200000   12.27800000
 C                  8.10100000    7.94400000   13.57200000
 C                  7.64800000    9.32400000   14.01900000
 O                  7.95900000   10.36000000   13.07600000
 H                  7.79500000   10.08200000   12.13000000
 C                  8.20800000    9.73900000   15.37000000
 O                  7.68600000   10.95700000   15.91900000
 H                  7.78800000   11.07000000   16.90800000
 C                  8.47300000    5.58400000   14.25300000
 O                  7.80400000    4.76100000   13.28700000
 H                  7.69200000    3.78500000   13.47400000
 C                  7.80700000    6.89600000   14.63300000
 O                  8.48200000    7.42200000   15.78500000
 C                  8.02400000    8.63500000   16.40000000
 O                  8.92500000    8.80000000   17.50500000
 C                  8.41900000    8.50600000   18.81500000
 C                  8.94100000    7.18000000   19.34500000
 O                  8.65300000    6.14600000   18.39300000
 H                  8.82300000    6.64800000   17.54500000
 C                  8.39000000    6.74800000   20.69400000
 O                  9.05100000    5.52900000   21.06300000
 H                  8.62100000    5.16200000   21.88800000
 C                  8.02100000   10.88700000   19.55500000
 O                  8.34300000   11.54700000   18.32200000
 H                  7.92000000   12.44400000   18.44500000
 C                  8.64000000    9.54300000   19.90400000
 O                  7.98700000    9.04600000   21.08100000
 C                  8.57500000    7.88500000   21.68500000
 O                  7.81700000    7.63700000   22.87800000
 H                  8.41650180    7.48439489   23.61210440
 H                  9.60953957    8.04472419   21.90662145
 H                  7.34328235    6.55174905   20.59023239
 H                 10.00426383    7.25899891   19.43516203
 H                  7.35960915    8.39836750   18.71008918
 H                  9.68722017    9.66017255   20.08974315
 H                  8.27268488   11.56208868   20.34608153
 H                  7.00721458    8.55511034   16.72351979
 H                  9.26098963    9.87912114   15.24162980
 H                  8.49230307    7.26826862   11.75789958
 H                  6.58273637    9.29034196   14.11376569
 H                  9.16816996    8.00827352   13.52821416
 H                  6.75679482    6.78135704   14.80278245
 H                  8.59342584    5.00757461   15.14638200
 H                  9.44687359    5.80999708   13.87169231
 H                  6.95917693   10.75601604   19.57158234

 1 2 1.0 39 1.0
 2 3 1.0 12 1.0 41 1.0
 3 4 1.0 6 1.0 40 1.0
 4 5 1.0
 5
 6 7 1.0 14 1.0 38 1.0
 7 8 1.0
 8
 9 10 1.0 12 1.0 43 1.0 44 1.0
 10 11 1.0
 11
 12 13 1.0 42 1.0
 13 14 1.0
 14 15 1.0 37 1.0
 15 16 1.0
 16 17 1.0 26 1.0 34 1.0
 17 18 1.0 20 1.0 33 1.0
 18 19 1.0
 19
 20 21 1.0 28 1.0 32 1.0
 21 22 1.0
 22
 23 24 1.0 26 1.0 36 1.0 45 1.0
 24 25 1.0
 25
 26 27 1.0 35 1.0
 27 28 1.0
 28 29 1.0 31 1.0
 29 30 1.0
 30
 31
 32
 33
 34
 35
 36
 37
 38
 39
 40
 41
 42
 43
 44
 45

