# freq=raman b3lyp/6-31+g(d,p) geom=connectivity

320 5000.com

0 1
O           7.83100         7.66700        22.76400
C           8.52800         7.87000        24.00200
C           8.19700         9.27800        24.47100
O           8.43600        10.31500        23.50900
H           8.18400         9.97000        22.60400
C           8.65400         9.67600        25.86500
O           7.99600        10.93200        26.08700
H           8.10900        11.15100        27.05600
C           8.52900         5.49800        24.82600
O           8.16200         4.81400        23.61900
H           8.23700         3.85500        23.89400
C           8.13200         6.93300        25.13100
O           8.66200         7.28600        26.41700
C           8.21700         8.58600        26.83000
O           9.06600         8.80000        27.96700
C           8.33600         8.43800        29.14800
C           8.95100         7.10600        29.54600
O           8.52900         6.04700        28.67500
H           8.71900         6.37600        27.74900
C           8.48700         6.82600        30.96600
O           9.07300         5.62500        31.49000
H           8.79900         5.43100        32.43200
C           7.85800        10.77400        29.86300
O           8.33100        11.60800        28.79500
H           8.23700        12.58600        28.98000
C           8.65700         9.51800        30.16900
O           8.31500         9.14900        31.51300
C           8.93100         7.92000        31.92300
O           8.13300         7.69300        33.09500

