# freq=raman b3lyp/6-31+g(2d,p) geom=connectivity

400 7592/7592.com

0 1
O           9.56700         7.40700        12.15100
C          10.00500         7.73000        13.47900
C           9.83400         9.17900        13.90500
O          10.46300        10.10600        13.00800
H          10.20000         9.85700        12.07600
C          10.51800         9.36100        15.25000
O          10.09100        10.65700        15.69500
H          10.59800        10.96400        16.50000
C           9.68300         5.33100        14.16200
O           9.19900         4.85800        12.89700
H           8.85000         3.92200        12.94800
C           9.49900         6.78700        14.55900
O          10.24500         7.03100        15.76000
C          10.00200         8.35300        16.26300
O          10.96600         8.38700        17.32500
C          10.29200         8.32900        18.59100
C          10.25800         6.88900        19.07700
O           9.43700         6.05800        18.24500
H           9.81100         6.10400        17.31900
C           9.82400         6.88100        20.53400
O          10.32600         5.61500        20.98500
H           9.99300         5.47100        21.91700
C          10.73600        10.75500        19.29700
O          11.28900        11.26800        18.07600
H          11.36900        12.25100        18.24400
C          10.87000         9.27800        19.62800
O          10.29800         9.21800        20.94200
C          10.46100         7.89400        21.47100
O           9.77900         7.85300        22.73300

