# freq=raman b3lyp/6-31+g(2d,p) geom=connectivity

493 5459/5459.com

0 1
 O                  7.64100000    7.44700000   12.30000000
 C                  8.12200000    7.85100000   13.59000000
 C                  7.49900000    9.15600000   14.05800000
 O                  7.90000000   10.28000000   13.26200000
 H                  7.59400000    9.94100000   12.37200000
 C                  8.11700000    9.45700000   15.41300000
 O                  7.69300000   10.70800000   15.97200000
 H                  8.00000000   10.84700000   16.91400000
 C                  8.18700000    5.31700000   14.26700000
 O                  7.66100000    4.62100000   13.12700000
 H                  7.97500000    3.67200000   13.13800000
 C                  7.72400000    6.73800000   14.54500000
 O                  8.27800000    7.05200000   15.83100000
 C                  7.91600000    8.31800000   16.40000000
 O                  8.82200000    8.46100000   17.50400000
 C                  8.27700000    8.10600000   18.78400000
 C                  8.70100000    6.76400000   19.35900000
 O                  8.46700000    5.74400000   18.37700000
 H                  8.69900000    6.28000000   17.56500000
 C                  8.20400000    6.37000000   20.74000000
 O                  8.84600000    5.19400000   21.25400000
 H                  8.40700000    4.75800000   22.03900000
 C                  8.14100000   10.54900000   19.57400000
 O                  8.52400000   11.34400000   18.44100000
 H                  8.30100000   12.28300000   18.70300000
 C                  8.54600000    9.11800000   19.88500000
 O                  8.00300000    8.78600000   21.17100000
 C                  8.43900000    7.52500000   21.69900000
 O                  7.54200000    7.43100000   22.81600000
 H                  8.04875230    7.36262639   23.62848209
 H                  9.45824536    7.56865217   22.02169704
 H                  7.15179963    6.18449869   20.68200302
 H                  9.76473508    6.82630235   19.45639659
 H                  7.21530981    8.06338841   18.65791195
 H                  9.60863707    9.13350855   20.00934609
 H                  7.07121907   10.53708579   19.55592195
 H                  8.44807475   11.11623217   20.42772874
 H                  8.38644685    7.26621555   11.72274271
 H                  7.95861609    4.73112785   15.13273357
 H                  9.25164629    5.34212942   14.16309236
 H                  6.65721198    6.73317248   14.62770443
 H                  9.18760068    7.94511197   13.56680242
 H                  6.43360137    9.08211160   14.12407776
 H                  9.17186440    9.53831906   15.25316164
 H                  6.90418679    8.29640901   16.74737280

 1 2 1.0 38 1.0
 2 3 1.0 12 1.0 42 1.0
 3 4 1.0 6 1.0 43 1.0
 4 5 1.0
 5
 6 7 1.0 14 1.0 44 1.0
 7 8 1.0
 8
 9 10 1.0 12 1.0 39 1.0 40 1.0
 10 11 1.0
 11
 12 13 1.0 41 1.0
 13 14 1.0
 14 15 1.0 45 1.0
 15 16 1.0
 16 17 1.0 26 1.0 34 1.0
 17 18 1.0 20 1.0 33 1.0
 18 19 1.0
 19
 20 21 1.0 28 1.0 32 1.0
 21 22 1.0
 22
 23 24 1.0 26 1.0 36 1.0 37 1.0
 24 25 1.0
 25
 26 27 1.0 35 1.0
 27 28 1.0
 28 29 1.0 31 1.0
 29 30 1.0
 30
 31
 32
 33
 34
 35
 36
 37
 38
 39
 40
 41
 42
 43
 44
 45

