# freq=raman b3lyp/6-31+g(2d,p) geom=connectivity

493 5459/5459.com

0 1
O           7.64100         7.44700        12.30000
C           8.12200         7.85100        13.59000
C           7.49900         9.15600        14.05800
O           7.90000        10.28000        13.26200
H           7.59400         9.94100        12.37200
C           8.11700         9.45700        15.41300
O           7.69300        10.70800        15.97200
H           8.00000        10.84700        16.91400
C           8.18700         5.31700        14.26700
O           7.66100         4.62100        13.12700
H           7.97500         3.67200        13.13800
C           7.72400         6.73800        14.54500
O           8.27800         7.05200        15.83100
C           7.91600         8.31800        16.40000
O           8.82200         8.46100        17.50400
C           8.27700         8.10600        18.78400
C           8.70100         6.76400        19.35900
O           8.46700         5.74400        18.37700
H           8.69900         6.28000        17.56500
C           8.20400         6.37000        20.74000
O           8.84600         5.19400        21.25400
H           8.40700         4.75800        22.03900
C           8.14100        10.54900        19.57400
O           8.52400        11.34400        18.44100
H           8.30100        12.28300        18.70300
C           8.54600         9.11800        19.88500
O           8.00300         8.78600        21.17100
C           8.43900         7.52500        21.69900
O           7.54200         7.43100        22.81600

