# freq=raman b3lyp/6-31+g(2d,p) geom=connectivity

483 6000/6000.com

0 1
O           7.50800         7.69200        12.09300
C           7.99300         8.08900        13.38400
C           7.44300         9.45300        13.77000
O           7.86100        10.54100        12.93300
H           7.56500        10.49400        11.97900
C           7.74900         9.82900        15.21100
O           7.01500        10.89600        15.82900
H           7.48700        11.15900        16.67000
C           8.48400         5.64300        14.12500
O           7.98700         4.93700        12.97900
H           8.07300         3.95400        13.14500
C           7.81800         6.98000        14.40800
O           8.21800         7.45700        15.70000
C           7.60200         8.66300        16.17500
O           8.36800         8.79300        17.38200
C           7.80300         8.37500        18.63300
C           8.38800         7.01500        18.97800
O           8.12600         6.06400        17.93600
H           8.27200         6.54100        17.06900
C           7.99500         6.53800        20.36600
O           8.38100         5.27500        20.92700
H           7.95600         4.98100        21.78300
C           7.85400        10.78700        19.40000
O           8.50100        11.52800        18.35600
H           8.28900        12.43100        18.73000
C           8.18800         9.34300        19.74000
O           7.56300         8.82200        20.92200
C           8.17000         7.62100        21.41900
O           7.49000         7.31800        22.64500

