# freq=raman b3lyp/6-31+g(2d,p) geom=connectivity

483 6000/6000.com

0 1
 O                  7.50800000    7.69200000   12.09300000
 C                  7.99300000    8.08900000   13.38400000
 C                  7.44300000    9.45300000   13.77000000
 O                  7.86100000   10.54100000   12.93300000
 H                  7.56500000   10.49400000   11.97900000
 C                  7.74900000    9.82900000   15.21100000
 O                  7.01500000   10.89600000   15.82900000
 H                  7.48700000   11.15900000   16.67000000
 C                  8.48400000    5.64300000   14.12500000
 O                  7.98700000    4.93700000   12.97900000
 H                  8.07300000    3.95400000   13.14500000
 C                  7.81800000    6.98000000   14.40800000
 O                  8.21800000    7.45700000   15.70000000
 C                  7.60200000    8.66300000   16.17500000
 O                  8.36800000    8.79300000   17.38200000
 C                  7.80300000    8.37500000   18.63300000
 C                  8.38800000    7.01500000   18.97800000
 O                  8.12600000    6.06400000   17.93600000
 H                  8.27200000    6.54100000   17.06900000
 C                  7.99500000    6.53800000   20.36600000
 O                  8.38100000    5.27500000   20.92700000
 H                  7.95600000    4.98100000   21.78300000
 C                  7.85400000   10.78700000   19.40000000
 O                  8.50100000   11.52800000   18.35600000
 H                  8.28900000   12.43100000   18.73000000
 C                  8.18800000    9.34300000   19.74000000
 O                  7.56300000    8.82200000   20.92200000
 C                  8.17000000    7.62100000   21.41900000
 O                  7.49000000    7.31800000   22.64500000
 H                  8.13520667    7.14744825   23.33508728
 H                  9.21028299    7.78646142   21.60697294
 H                  6.93278431    6.44023144   20.28210047
 H                  9.44981959    7.14515205   19.00035177
 H                  6.73797344    8.30919382   18.55370322
 H                  9.24737405    9.27958319   19.87639986
 H                  7.99651437   11.34833143   20.29972034
 H                  6.80706082   10.80961222   19.18021135
 H                  8.25169705    7.51356873   11.51276128
 H                  8.35733830    5.01770417   14.98398890
 H                  9.53089877    5.81383361   13.98457622
 H                  6.76722316    6.78630756   14.46501996
 H                  9.04926033    8.22064219   13.27498422
 H                  6.37827623    9.38920984   13.68518193
 H                  8.77912452   10.11762628   15.23193667
 H                  6.57098798    8.49063580   16.40348370

 1 2 1.0 38 1.0
 2 3 1.0 12 1.0 42 1.0
 3 4 1.0 6 1.0 43 1.0
 4 5 1.0
 5
 6 7 1.0 14 1.0 44 1.0
 7 8 1.0
 8
 9 10 1.0 12 1.0 39 1.0 40 1.0
 10 11 1.0
 11
 12 13 1.0 41 1.0
 13 14 1.0
 14 15 1.0 45 1.0
 15 16 1.0
 16 17 1.0 26 1.0 34 1.0
 17 18 1.0 20 1.0 33 1.0
 18 19 1.0
 19
 20 21 1.0 28 1.0 32 1.0
 21 22 1.0
 22
 23 24 1.0 26 1.0 36 1.0 37 1.0
 24 25 1.0
 25
 26 27 1.0 35 1.0
 27 28 1.0
 28 29 1.0 31 1.0
 29 30 1.0
 30
 31
 32
 33
 34
 35
 36
 37
 38
 39
 40
 41
 42
 43
 44
 45

