# freq=raman b3lyp/6-31+g(2d,p) geom=connectivity

320 8026/8026.com

0 1
 O                  7.83500000    7.40900000   12.03700000
 C                  8.23200000    7.88300000   13.33200000
 C                  7.86200000    9.29900000   13.74100000
 O                  8.51500000   10.26600000   12.90500000
 H                  8.41600000    9.84700000   12.00200000
 C                  8.36600000    9.60900000   15.14100000
 O                  7.82500000   10.82900000   15.66800000
 H                  8.18600000   10.97700000   16.58800000
 C                  8.28000000    5.46500000   14.02000000
 O                  7.58300000    4.81300000   12.94800000
 H                  7.68800000    3.82000000   12.98600000
 C                  7.79600000    6.86200000   14.37100000
 O                  8.36300000    7.22700000   15.63800000
 C                  8.02300000    8.52400000   16.14900000
 O                  8.86400000    8.80100000   17.27800000
 C                  8.34400000    8.44700000   18.56800000
 C                  8.87700000    7.07100000   18.92900000
 O                  8.63500000    6.01700000   17.98600000
 H                  8.36400000    6.43800000   17.12000000
 C                  8.44200000    6.62300000   20.31500000
 O                  9.13100000    5.51000000   20.90300000
 H                  8.67000000    5.40100000   21.78400000
 C                  8.40800000   10.94900000   19.48900000
 O                  8.71200000   11.48400000   18.19300000
 H                  8.68300000   12.47900000   18.28900000
 C                  8.72200000    9.46800000   19.62900000
 O                  8.33300000    9.04600000   20.94500000
 C                  8.70500000    7.71700000   21.33700000
 O                  7.85000000    7.48700000   22.46600000
 H                  8.38614366    7.32803561   23.24630782
 H                  8.97204300   11.48793664   20.22132697
 H                  7.36614827   11.09657557   19.68307838
 H                  9.79138018    9.43385960   19.64166712
 H                  7.27700902    8.39640860   18.50578465
 H                  9.94055054    7.17831645   18.97636474
 H                  7.39352792    6.41029905   20.29590534
 H                  9.73007678    7.69692944   21.64312869
 H                  8.61624381    7.21723579   11.51308723
 H                  8.19414091    4.85340555   14.89377368
 H                  9.31476410    5.52777192   13.75500387
 H                  6.72854335    6.86164321   14.44473044
 H                  9.30172628    7.85890215   13.32976955
 H                  6.80108075    9.43028427   13.69501311
 H                  9.43094477    9.70418318   15.09937310
 H                  6.98963657    8.56946099   16.42284907

 1 2 1.0 38 1.0
 2 3 1.0 12 1.0 42 1.0
 3 4 1.0 6 1.0 43 1.0
 4 5 1.0
 5
 6 7 1.0 14 1.0 44 1.0
 7 8 1.0
 8
 9 10 1.0 12 1.0 39 1.0 40 1.0
 10 11 1.0
 11
 12 13 1.0 41 1.0
 13 14 1.0
 14 15 1.0 45 1.0
 15 16 1.0
 16 17 1.0 26 1.0 34 1.0
 17 18 1.0 20 1.0 35 1.0
 18 19 1.0
 19
 20 21 1.0 28 1.0 36 1.0
 21 22 1.0
 22
 23 24 1.0 26 1.0 31 1.0 32 1.0
 24 25 1.0
 25
 26 27 1.0 33 1.0
 27 28 1.0
 28 29 1.0 37 1.0
 29 30 1.0
 30
 31
 32
 33
 34
 35
 36
 37
 38
 39
 40
 41
 42
 43
 44
 45

