# freq=raman b3lyp/6-31+g(2d,p) geom=connectivity

483 5084/5084.com

0 1
 O                  7.66200000    7.61600000   12.18500000
 C                  8.12500000    7.97200000   13.49600000
 C                  7.45400000    9.22000000   14.04500000
 O                  7.35200000   10.19400000   12.99600000
 H                  7.46000000    9.78900000   12.08800000
 C                  8.17200000    9.63600000   15.31800000
 O                  7.66600000   10.90200000   15.76600000
 H                  8.21800000   11.16300000   16.55800000
 C                  8.37600000    5.55100000   14.13000000
 O                  7.95300000    4.77000000   13.00300000
 H                  8.28100000    3.83800000   13.15700000
 C                  7.83800000    6.91100000   14.54500000
 O                  8.39300000    7.28300000   15.81500000
 C                  7.99900000    8.54800000   16.36600000
 O                  8.85900000    8.72800000   17.50100000
 C                  8.38000000    8.27200000   18.77500000
 C                  8.86600000    6.91600000   19.26000000
 O                  8.44800000    5.90900000   18.32700000
 H                  8.73700000    6.19400000   17.41300000
 C                  8.32300000    6.54200000   20.62900000
 O                  8.97100000    5.41000000   21.22600000
 H                  8.46600000    5.38700000   22.08900000
 C                  8.24700000   10.68900000   19.54700000
 O                  8.75500000   11.43000000   18.42800000
 H                  8.54700000   12.40100000   18.55200000
 C                  8.69500000    9.27400000   19.87400000
 O                  8.04300000    8.90500000   21.09800000
 C                  8.47500000    7.65400000   21.65400000
 O                  7.51600000    7.54400000   22.71600000
 H                  7.97551988    7.45716095   23.55439159
 H                  9.47461885    7.71574616   22.03062923
 H                  7.28167064    6.31839282   20.52636963
 H                  9.93509214    6.92662826   19.30276714
 H                  7.31429325    8.21176490   18.70056307
 H                  9.75239705    9.27955552   20.03764783
 H                  8.44564503   11.27905349   20.41721666
 H                  7.18421442   10.65126442   19.42883556
 H                  8.41547340    7.46010768   11.61091341
 H                  9.42835399    5.69184375   13.99728183
 H                  8.23346092    4.91884327   14.98144611
 H                  6.77678123    6.83023098   14.65541328
 H                  9.18113438    8.13845459   13.45389241
 H                  6.45609598    8.94996113   14.32098292
 H                  9.21501979    9.74139621   15.10375397
 H                  6.97827784    8.50548041   16.68414831

 1 2 1.0 38 1.0
 2 3 1.0 12 1.0 42 1.0
 3 4 1.0 6 1.0 43 1.0
 4 5 1.0
 5
 6 7 1.0 14 1.0 44 1.0
 7 8 1.0
 8
 9 10 1.0 12 1.0 39 1.0 40 1.0
 10 11 1.0
 11
 12 13 1.0 41 1.0
 13 14 1.0
 14 15 1.0 45 1.0
 15 16 1.0
 16 17 1.0 26 1.0 34 1.0
 17 18 1.0 20 1.0 33 1.0
 18 19 1.0
 19
 20 21 1.0 28 1.0 32 1.0
 21 22 1.0
 22
 23 24 1.0 26 1.0 36 1.0 37 1.0
 24 25 1.0
 25
 26 27 1.0 35 1.0
 27 28 1.0
 28 29 1.0 31 1.0
 29 30 1.0
 30
 31
 32
 33
 34
 35
 36
 37
 38
 39
 40
 41
 42
 43
 44
 45

