# freq=raman b3lyp/6-31+g(2df,p) geom=connectivity

290 10000.com

0 1
 O                  7.60700000    7.54400000   12.32100000
 C                  8.25400000    7.90000000   13.55100000
 C                  7.65800000    9.20300000   14.05700000
 O                  8.08100000   10.19800000   13.11400000
 H                  7.62300000   10.07100000   12.23400000
 C                  8.10200000    9.72600000   15.41400000
 O                  7.48800000   10.89200000   15.98200000
 H                  8.03800000   11.14200000   16.78000000
 C                  8.65800000    5.55700000   14.33600000
 O                  8.04100000    4.74300000   13.32800000
 H                  8.37100000    3.82600000   13.55200000
 C                  7.96200000    6.87600000   14.63500000
 O                  8.57400000    7.33200000   15.85000000
 C                  8.00000000    8.54300000   16.36400000
 O                  8.77900000    8.73400000   17.55400000
 C                  8.10500000    8.39300000   18.77400000
 C                  8.57500000    7.05800000   19.32900000
 O                  8.06400000    6.07000000   18.42100000
 H                  8.40500000    6.32300000   17.51600000
 C                  8.25900000    6.65900000   20.76100000
 O                  9.11200000    5.61200000   21.24600000
 H                  8.69900000    5.21500000   22.06600000
 C                  8.06800000   10.90200000   19.39000000
 O                  8.70100000   11.60700000   18.31200000
 H                  8.69600000   12.59900000   18.43500000
 C                  8.38900000    9.47500000   19.80200000
 O                  7.84300000    9.12100000   21.08100000
 C                  8.42000000    7.91500000   21.60200000
 O                  7.75000000    7.64500000   22.84200000
 H                  8.27051725    7.35111234   11.65456230
 H                  8.40099482    7.49488871   23.53139999
 H                  9.46012317    8.07809788   21.79290016
 H                  7.24170569    6.33171432   20.81481794
 H                  9.64104261    7.04616541   19.23782388
 H                  7.05142075    8.34737161   18.59292320
 H                  9.45047819    9.45892688   19.93581219
 H                  8.21742770   11.50207422   20.26320232
 H                  7.01924296   10.91939075   19.17856151
 H                  9.14302557    9.95495614   15.32048611
 H                  6.97601134    8.37539553   16.62525841
 H                  6.59051528    9.13179203   14.03951321
 H                  9.30911192    8.00200532   13.40528192
 H                  6.90885501    6.73671644   14.76300668
 H                  8.70165924    4.98984466   15.24227186
 H                  9.65927162    5.77102673   14.02527875

 1 2 1.0 30 1.0
 2 3 1.0 12 1.0 42 1.0
 3 4 1.0 6 1.0 41 1.0
 4 5 1.0
 5
 6 7 1.0 14 1.0 39 1.0
 7 8 1.0
 8
 9 10 1.0 12 1.0 44 1.0 45 1.0
 10 11 1.0
 11
 12 13 1.0 43 1.0
 13 14 1.0
 14 15 1.0 40 1.0
 15 16 1.0
 16 17 1.0 26 1.0 35 1.0
 17 18 1.0 20 1.0 34 1.0
 18 19 1.0
 19
 20 21 1.0 28 1.0 33 1.0
 21 22 1.0
 22
 23 24 1.0 26 1.0 37 1.0 38 1.0
 24 25 1.0
 25
 26 27 1.0 36 1.0
 27 28 1.0
 28 29 1.0 32 1.0
 29 31 1.0
 30
 31
 32
 33
 34
 35
 36
 37
 38
 39
 40
 41
 42
 43
 44
 45

