# freq=raman b3lyp/6-31+g(2d,p) geom=connectivity

500 8510/8510.com

0 1
O           8.41500         6.71400        12.21200
C           9.38200         6.88000        13.26000
C           8.95300         8.16700        13.94400
O           9.29400         9.38200        13.26100
H           9.38200         9.21100        12.28000
C           9.43500         8.42800        15.36200
O           8.89500         9.65800        15.86600
H           9.31300        10.49200        15.50600
C           9.48800         4.41300        13.80700
O           8.84800         3.30600        14.45900
H           8.89900         2.46200        13.92300
C           9.10200         5.80000        14.29300
O           9.65400         5.98200        15.60500
C           9.06200         7.17500        16.13800
O           9.87200         7.26100        17.32000
C           9.17400         7.02400        18.55100
C           9.12900         5.54900        18.91500
O           8.67900         4.64800        17.89200
H           8.74800         5.25600        17.10100
C           8.56600         5.25100        20.29500
O           8.45900         3.89400        20.74900
H           7.85700         3.55600        20.02500
C           9.92700         9.09300        19.37200
O          10.54500        10.07700        20.21400
H          10.17200        10.98800        20.03700
C           9.98200         7.61000        19.69700
O           9.45100         7.45100        21.02100
C           9.34200         6.05300        21.32600
O           8.69400         6.03800        22.60700

