# freq=raman b3lyp/6-31+g(2d,p) geom=connectivity

423 5000/5000.com

0 1
 O                  7.72200000    7.52700000   12.28800000
 C                  8.35900000    7.94800000   13.50200000
 C                  7.70700000    9.25300000   13.92900000
 O                  7.75700000   10.31100000   12.96100000
 H                  7.56000000    9.78500000   12.13400000
 C                  8.30300000    9.70700000   15.25200000
 O                  7.82200000   10.93300000   15.82100000
 H                  8.39000000   11.10700000   16.62500000
 C                  8.57100000    5.51600000   14.35300000
 O                  8.10700000    4.92900000   13.12900000
 H                  8.20500000    3.93400000   13.12500000
 C                  8.02700000    6.91800000   14.57000000
 O                  8.55600000    7.32900000   15.83900000
 C                  8.05000000    8.60200000   16.26500000
 O                  8.86000000    8.82300000   17.42800000
 C                  8.36700000    8.51100000   18.73900000
 C                  8.75400000    7.12000000   19.21400000
 O                  8.27600000    6.08800000   18.33800000
 H                  8.48700000    6.46300000   17.43600000
 C                  8.31400000    6.87000000   20.64700000
 O                  8.64200000    5.50700000   20.95200000
 H                  8.33700000    5.23800000   21.86500000
 C                  8.29800000   10.86000000   19.39500000
 O                  8.87800000   11.51000000   18.25500000
 H                  8.69900000   12.48700000   18.36900000
 C                  8.73000000    9.47700000   19.85500000
 O                  8.21900000    9.20400000   21.16800000
 C                  8.70400000    7.94300000   21.65100000
 O                  7.75200000    7.80200000   22.71500000
 H                  8.21677693    7.69165032   23.54770965
 H                  8.39078528    7.30134640   11.63730291
 H                  9.63990249    5.55958623   14.33184109
 H                  8.26606473    4.89669982   15.17054619
 H                  6.96212103    6.85498180   14.65343557
 H                  9.41576096    8.05813090   13.37540042
 H                  6.67310499    9.04172698   14.10598820
 H                  9.36077742    9.79985925   15.12015127
 H                  7.01356760    8.53953135   16.52346769
 H                  8.44123633   11.51727442   20.22708995
 H                  7.24494431   10.80632703   19.21308541
 H                  9.79736030    9.48493897   19.92969243
 H                  7.29953289    8.52148379   18.66617106
 H                  9.82281412    7.07127241   19.20127193
 H                  7.24471479    6.89940702   20.62122481
 H                  9.72788581    7.93836305   21.96170300

 1 2 1.0 31 1.0
 2 3 1.0 12 1.0 35 1.0
 3 4 1.0 6 1.0 36 1.0
 4 5 1.0
 5
 6 7 1.0 14 1.0 37 1.0
 7 8 1.0
 8
 9 10 1.0 12 1.0 32 1.0 33 1.0
 10 11 1.0
 11
 12 13 1.0 34 1.0
 13 14 1.0
 14 15 1.0 38 1.0
 15 16 1.0
 16 17 1.0 26 1.0 42 1.0
 17 18 1.0 20 1.0 43 1.0
 18 19 1.0
 19
 20 21 1.0 28 1.0 44 1.0
 21 22 1.0
 22
 23 24 1.0 26 1.0 39 1.0 40 1.0
 24 25 1.0
 25
 26 27 1.0 41 1.0
 27 28 1.0
 28 29 1.0 45 1.0
 29 30 1.0
 30
 31
 32
 33
 34
 35
 36
 37
 38
 39
 40
 41
 42
 43
 44
 45

