# freq=raman b3lyp/6-31+g(d,p) geom=connectivity

400 7000.com

0 1
 O                  9.16900000    7.75300000   22.30600000
 C                  9.86900000    8.01200000   23.53200000
 C                  9.44600000    9.35200000   24.11000000
 O                  9.59800000   10.40900000   23.15100000
 H                  9.67100000    9.98200000   22.24900000
 C                 10.10700000    9.83300000   25.39100000
 O                  9.68800000   11.13800000   25.81400000
 H                  9.97000000   11.17200000   26.77300000
 C                 10.18300000    5.67300000   24.53000000
 O                  9.56200000    4.74900000   23.62400000
 H                  9.52200000    3.87500000   24.10900000
 C                  9.61000000    7.07100000   24.69700000
 O                 10.19800000    7.41700000   25.95900000
 C                  9.77200000    8.72300000   26.37500000
 O                 10.59600000    8.88100000   27.53900000
 C                 10.09200000    8.52000000   28.83300000
 C                 10.45400000    7.10400000   29.24900000
 O                 10.28600000    6.07900000   28.26000000
 H                 10.28900000    6.49100000   27.34900000
 C                  9.71900000    6.89800000   30.56400000
 O                  9.96700000    5.59700000   31.11700000
 H                  9.62700000    5.31800000   32.01500000
 C                 10.51000000   10.90000000   29.63600000
 O                 11.31500000   11.43200000   28.57400000
 H                 11.45000000   12.38600000   28.84100000
 C                 10.71900000    9.41600000   29.88900000
 O                 10.04400000    9.26600000   31.14600000
 C                 10.30700000    7.91000000   31.53400000
 O                  9.57000000    7.70900000   32.74900000
 H                 10.18231872    7.58832488   33.47845411
 H                  9.80310014    7.60401995   21.60078942
 H                 10.18642167    5.21460281   25.49683003
 H                 11.20156577    5.78305448   24.22127393
 H                  8.55151455    6.98828884   24.82991882
 H                 10.91990053    8.03552396   23.33211329
 H                  8.39960809    9.27303796   24.31911471
 H                 11.16655891    9.84886228   25.24273229
 H                  8.73375646    8.72898868   26.63367834
 H                 10.73804219   11.43337785   30.53511336
 H                  9.48003688   11.06191154   29.39545766
 H                 11.76102191    9.19802485   29.99659727
 H                  9.02858239    8.63741552   28.84901816
 H                 11.49751758    7.11661150   29.48524564
 H                  8.66898144    7.06196042   30.43958940
 H                 11.35315726    7.74323934   31.68448546

 1 2 1.0 31 1.0
 2 3 1.0 12 1.0 35 1.0
 3 4 1.0 6 1.0 36 1.0
 4 5 1.0
 5
 6 7 1.0 14 1.0 37 1.0
 7 8 1.0
 8
 9 10 1.0 12 1.0 32 1.0 33 1.0
 10 11 1.0
 11
 12 13 1.0 34 1.0
 13 14 1.0
 14 15 1.0 38 1.0
 15 16 1.0
 16 17 1.0 26 1.0 42 1.0
 17 18 1.0 20 1.0 43 1.0
 18 19 1.0
 19
 20 21 1.0 28 1.0 44 1.0
 21 22 1.0
 22
 23 24 1.0 26 1.0 39 1.0 40 1.0
 24 25 1.0
 25
 26 27 1.0 41 1.0
 27 28 1.0
 28 29 1.0 45 1.0
 29 30 1.0
 30
 31
 32
 33
 34
 35
 36
 37
 38
 39
 40
 41
 42
 43
 44
 45

