# freq=raman b3lyp/6-31+g(2d,p) geom=connectivity

500 7899/7899.com

0 1
O           8.44900         7.14100        11.90700
C           9.25300         7.19800        13.09400
C           9.24600         8.55000        13.78800
O           9.43700         9.60600        12.83400
H           9.03600         9.41000        11.93900
C          10.03000         8.80000        15.06600
O           9.63500        10.05600        15.63500
H           9.78500        10.88700        15.09900
C           8.99800         4.73400        13.71700
O           8.36000         3.83200        14.63200
H           8.33700         2.92700        14.20800
C           8.97600         6.18000        14.18700
O           9.76900         6.39800        15.36300
C           9.60900         7.67500        15.99800
O          10.42300         7.71800        17.17900
C           9.80800         7.35100        18.42200
C          10.14300         5.92000        18.80800
O           9.65100         4.96300        17.85800
H           9.92300         5.15700        16.91500
C           9.48000         5.50600        20.11200
O           9.26300         4.14900        20.52500
H           8.63200         3.73100        19.87200
C          10.26300         9.57400        19.30100
O          11.06700        10.58300        19.93000
H          10.69400        11.50000        20.06600
C          10.55200         8.09800        19.51700
O          10.17900         7.70300        20.84600
C          10.17700         6.31100        21.19600
O           9.45200         6.14800        22.42400

