# freq=raman b3lyp/6-31+g(2d,p) geom=connectivity

500 7899/7899.com

0 1
 O                  8.44900000    7.14100000   11.90700000
 C                  9.25300000    7.19800000   13.09400000
 C                  9.24600000    8.55000000   13.78800000
 O                  9.43700000    9.60600000   12.83400000
 H                  9.03600000    9.41000000   11.93900000
 C                 10.03000000    8.80000000   15.06600000
 O                  9.63500000   10.05600000   15.63500000
 H                  9.78500000   10.88700000   15.09900000
 C                  8.99800000    4.73400000   13.71700000
 O                  8.36000000    3.83200000   14.63200000
 H                  8.33700000    2.92700000   14.20800000
 C                  8.97600000    6.18000000   14.18700000
 O                  9.76900000    6.39800000   15.36300000
 C                  9.60900000    7.67500000   15.99800000
 O                 10.42300000    7.71800000   17.17900000
 C                  9.80800000    7.35100000   18.42200000
 C                 10.14300000    5.92000000   18.80800000
 O                  9.65100000    4.96300000   17.85800000
 H                  9.92300000    5.15700000   16.91500000
 C                  9.48000000    5.50600000   20.11200000
 O                  9.26300000    4.14900000   20.52500000
 H                  8.63200000    3.73100000   19.87200000
 C                 10.26300000    9.57400000   19.30100000
 O                 11.06700000   10.58300000   19.93000000
 H                 10.69400000   11.50000000   20.06600000
 C                 10.55200000    8.09800000   19.51700000
 O                 10.17900000    7.70300000   20.84600000
 C                 10.17700000    6.31100000   21.19600000
 O                  9.45200000    6.14800000   22.42400000
 H                 10.07151332    6.05150421   23.15097442
 H                 11.18201052    5.96453358   21.31771639
 H                  8.49444825    5.91781588   20.04879063
 H                 11.20394580    5.81605598   18.90013930
 H                  8.75601956    7.54583749   18.43859806
 H                 11.60170789    7.93194124   19.39275094
 H                  9.25241957    9.74274301   19.60946880
 H                 10.30923354    9.75022604   18.24662490
 H                  9.01933114    7.10396055   11.13566968
 H                 10.01601852    4.43019266   13.58956614
 H                  8.50013010    4.67291286   12.77185772
 H                  7.96600741    6.36128030   14.49023659
 H                 10.26005820    7.02773590   12.77502677
 H                  8.22827981    8.66220361   14.09873455
 H                 11.08379265    8.77331313   14.88240024
 H                  8.58296177    7.80770482   16.27101097

 1 2 1.0 38 1.0
 2 3 1.0 12 1.0 42 1.0
 3 4 1.0 6 1.0 43 1.0
 4 5 1.0
 5
 6 7 1.0 14 1.0 44 1.0
 7 8 1.0
 8
 9 10 1.0 12 1.0 39 1.0 40 1.0
 10 11 1.0
 11
 12 13 1.0 41 1.0
 13 14 1.0
 14 15 1.0 45 1.0
 15 16 1.0
 16 17 1.0 26 1.0 34 1.0
 17 18 1.0 20 1.0 33 1.0
 18 19 1.0
 19
 20 21 1.0 28 1.0 32 1.0
 21 22 1.0
 22
 23 24 1.0 26 1.0 36 1.0 37 1.0
 24 25 1.0
 25
 26 27 1.0 35 1.0
 27 28 1.0
 28 29 1.0 31 1.0
 29 30 1.0
 30
 31
 32
 33
 34
 35
 36
 37
 38
 39
 40
 41
 42
 43
 44
 45

