# freq=raman b3lyp/6-31+g(d,p) geom=connectivity

550 10000.com

0 1
 O                  9.61300000    7.46100000   11.05800000
 C                 10.47300000    7.66800000   12.18800000
 C                 10.31600000    9.02500000   12.85400000
 O                 10.62400000   10.00000000   11.84700000
 H                 10.59700000    9.56500000   10.94700000
 C                 10.76400000    9.36800000   14.26500000
 O                 10.39700000   10.58600000   14.93000000
 H                 10.57000000   11.33200000   14.28600000
 C                  9.92100000    5.22100000   12.93600000
 O                  9.15700000    4.18200000   13.56300000
 H                  8.98700000    3.30500000   13.11200000
 C                  9.94600000    6.71000000   13.24300000
 O                 10.74700000    6.92400000   14.41400000
 C                 10.31400000    8.14100000   15.04100000
 O                 11.15000000    8.19300000   16.20600000
 C                 10.28300000    8.09200000   17.34500000
 C                  9.87000000    6.66600000   17.67000000
 O                  8.85100000    6.18000000   16.78500000
 H                  9.33600000    5.60500000   16.12600000
 C                  9.13300000    6.81200000   18.99100000
 O                  8.79400000    5.44800000   19.28200000
 H                  8.09500000    5.42500000   18.56800000
 C                 11.65800000   10.04200000   18.19300000
 O                 12.58200000   10.62300000   19.12400000
 H                 13.41600000   10.08500000   19.24400000
 C                 11.20500000    8.61200000   18.43600000
 O                 10.69200000    8.48500000   19.77000000
 C                 10.00900000    7.27900000   20.14200000
 O                  9.50100000    7.57200000   21.45100000
 H                 10.14579096    7.31710544   10.27248861
 H                 10.93896078    4.90649948   13.03471811
 H                  9.66028190    5.16193696   11.89993165
 H                  8.94430371    7.00639428   13.47463541
 H                 11.49542878    7.46106078   11.94984974
 H                  9.25298689    9.10544038   12.94582855
 H                 11.83377675    9.35003081   14.25255736
 H                  9.27064188    8.14804083   15.27817982
 H                 10.23409854    7.70738544   22.05584486
 H                 10.78481439   10.66012927   18.17394490
 H                 12.10815005   10.07932709   17.22301463
 H                 12.08598917    8.00613647   18.39492128
 H                  9.42811430    8.72575572   17.23353645
 H                 10.70497140    6.00084552   17.74274802
 H                  8.25710513    7.41803009   18.88884469
 H                 10.75732760    6.52525315   20.27150481

 1 2 1.0 30 1.0
 2 3 1.0 12 1.0 34 1.0
 3 4 1.0 6 1.0 35 1.0
 4 5 1.0
 5
 6 7 1.0 14 1.0 36 1.0
 7 8 1.0
 8
 9 10 1.0 12 1.0 31 1.0 32 1.0
 10 11 1.0
 11
 12 13 1.0 33 1.0
 13 14 1.0
 14 15 1.0 37 1.0
 15 16 1.0
 16 17 1.0 26 1.0 42 1.0
 17 18 1.0 20 1.0 43 1.0
 18 19 1.0
 19
 20 21 1.0 28 1.0 44 1.0
 21 22 1.0
 22
 23 24 1.0 26 1.0 39 1.0 40 1.0
 24 25 1.0
 25
 26 27 1.0 41 1.0
 27 28 1.0
 28 29 1.0 45 1.0
 29 38 1.0
 30
 31
 32
 33
 34
 35
 36
 37
 38
 39
 40
 41
 42
 43
 44
 45

