# freq=raman b3lyp/6-31+g(2d,p) geom=connectivity

493 5508/5508.com

0 1
 O                  7.63900000    7.76000000   12.16900000
 C                  8.21900000    7.96700000   13.46500000
 C                  7.72100000    9.31300000   13.96700000
 O                  7.89300000   10.39300000   13.03800000
 H                  7.87500000   10.09100000   12.08500000
 C                  8.25000000    9.60300000   15.36200000
 O                  7.71900000   10.81700000   15.91400000
 H                  8.17300000   10.96200000   16.79300000
 C                  8.20700000    5.50600000   14.22200000
 O                  7.61100000    4.84700000   13.09500000
 H                  7.59100000    3.87300000   13.32300000
 C                  7.82000000    6.94500000   14.51800000
 O                  8.41200000    7.19600000   15.80100000
 C                  7.92300000    8.45100000   16.29700000
 O                  8.81600000    8.55900000   17.41500000
 C                  8.25000000    8.25300000   18.69800000
 C                  8.75900000    6.92700000   19.23800000
 O                  8.26900000    5.92800000   18.33200000
 H                  8.28400000    6.29700000   17.40300000
 C                  8.35800000    6.58400000   20.66300000
 O                  9.00900000    5.40200000   21.15100000
 H                  8.43200000    5.07700000   21.90000000
 C                  8.58000000   10.72300000   19.52400000
 O                  8.80300000   11.30900000   18.23300000
 H                  8.66600000   12.28600000   18.39600000
 C                  8.85500000    9.23700000   19.68600000
 O                  8.38100000    9.07300000   21.03000000
 C                  8.74600000    7.77600000   21.52300000
 O                  7.79500000    7.71600000   22.59700000
 H                  8.26113513    7.66918827   23.43493001
 H                  9.75584361    7.73119045   21.87386747
 H                  7.29779402    6.44667978   20.70779321
 H                  9.82767996    6.93300363   19.18520697
 H                  7.18109968    8.30099525   18.69103194
 H                  9.91529938    9.09324717   19.68541348
 H                  9.19276285   11.24566134   20.22844788
 H                  7.55706004   10.89479274   19.78664251
 H                  8.33750946    7.65613192   11.51869549
 H                  7.97690157    4.92633485   15.09144984
 H                  9.26784329    5.48061523   14.08464236
 H                  6.75657185    6.98584692   14.62914002
 H                  9.28520218    7.99140808   13.37829846
 H                  6.66274045    9.20220513   14.07974407
 H                  9.31423307    9.69772555   15.30425013
 H                  6.89430492    8.41596285   16.58933341

 1 2 1.0 38 1.0
 2 3 1.0 12 1.0 42 1.0
 3 4 1.0 6 1.0 43 1.0
 4 5 1.0
 5
 6 7 1.0 14 1.0 44 1.0
 7 8 1.0
 8
 9 10 1.0 12 1.0 39 1.0 40 1.0
 10 11 1.0
 11
 12 13 1.0 41 1.0
 13 14 1.0
 14 15 1.0 45 1.0
 15 16 1.0
 16 17 1.0 26 1.0 34 1.0
 17 18 1.0 20 1.0 33 1.0
 18 19 1.0
 19
 20 21 1.0 28 1.0 32 1.0
 21 22 1.0
 22
 23 24 1.0 26 1.0 36 1.0 37 1.0
 24 25 1.0
 25
 26 27 1.0 35 1.0
 27 28 1.0
 28 29 1.0 31 1.0
 29 30 1.0
 30
 31
 32
 33
 34
 35
 36
 37
 38
 39
 40
 41
 42
 43
 44
 45

