# freq=raman b3lyp/6-31+g(2d,p) geom=connectivity

450 6535/6535.com

0 1
O          10.47800         8.01200        11.69200
C          11.36600         7.82500        12.80300
C          11.76900         9.16900        13.38800
O          12.75900         9.70100        12.49500
H          12.41600         9.48300        11.58100
C          12.34400         9.21900        14.79400
O          12.31400        10.59900        15.18400
H          12.63000        11.12600        14.39600
C          10.36100         5.67800        13.46800
O           9.32200         4.98200        14.17200
H           9.44200         4.05400        13.81800
C          10.57900         7.12000        13.89600
O          11.26200         7.02000        15.15500
C          11.49200         8.33200        15.68800
O          12.01300         7.92800        16.96300
C          11.05700         8.32500        17.95600
C          10.41600         7.01100        18.37200
O           9.46800         6.52200        17.41200
H           9.88200         6.56100        16.50300
C           9.74500         7.22700        19.71900
O           9.23900         6.05400        20.37100
H           8.30400         5.93300        20.03500
C          12.31800        10.37200        18.73200
O          13.16600        10.96000        19.73000
H          14.10600        10.61900        19.75300
C          11.96500         8.92200        19.01900
O          11.37700         8.96100        20.32700
C          10.69000         7.78300        20.77300
O          10.02800         7.87800        22.04200

