# freq=raman b3lyp/6-31+g(2d,p) geom=connectivity

450 6535/6535.com

0 1
 O                 10.47800000    8.01200000   11.69200000
 C                 11.36600000    7.82500000   12.80300000
 C                 11.76900000    9.16900000   13.38800000
 O                 12.75900000    9.70100000   12.49500000
 H                 12.41600000    9.48300000   11.58100000
 C                 12.34400000    9.21900000   14.79400000
 O                 12.31400000   10.59900000   15.18400000
 H                 12.63000000   11.12600000   14.39600000
 C                 10.36100000    5.67800000   13.46800000
 O                  9.32200000    4.98200000   14.17200000
 H                  9.44200000    4.05400000   13.81800000
 C                 10.57900000    7.12000000   13.89600000
 O                 11.26200000    7.02000000   15.15500000
 C                 11.49200000    8.33200000   15.68800000
 O                 12.01300000    7.92800000   16.96300000
 C                 11.05700000    8.32500000   17.95600000
 C                 10.41600000    7.01100000   18.37200000
 O                  9.46800000    6.52200000   17.41200000
 H                  9.88200000    6.56100000   16.50300000
 C                  9.74500000    7.22700000   19.71900000
 O                  9.23900000    6.05400000   20.37100000
 H                  8.30400000    5.93300000   20.03500000
 C                 12.31800000   10.37200000   18.73200000
 O                 13.16600000   10.96000000   19.73000000
 H                 14.10600000   10.61900000   19.75300000
 C                 11.96500000    8.92200000   19.01900000
 O                 11.37700000    8.96100000   20.32700000
 C                 10.69000000    7.78300000   20.77300000
 O                 10.02800000    7.87800000   22.04200000
 H                 10.68326544    7.93037587   22.74163131
 H                 11.41291742   10.93976220   18.67393449
 H                 12.81615411   10.42247229   17.78638114
 H                 12.86735304    8.34863938   19.06277877
 H                 10.34748195    9.02985949   17.57566169
 H                 11.18755004    6.27906285   18.48980725
 H                  8.93800730    7.91714923   19.58725471
 H                 11.45009865    7.04087663   20.90107400
 H                 10.99074952    8.14671037   10.89166192
 H                 11.27748974    5.14404706   13.60885744
 H                 10.12290571    5.67001900   12.42485695
 H                  9.63457453    7.60392074   14.03304473
 H                 12.22549917    7.25452059   12.51889716
 H                 10.91367667    9.81124235   13.35890060
 H                 13.35375018    8.86509960   14.78631333
 H                 10.54742946    8.81095114   15.84061817

 1 2 1.0 38 1.0
 2 3 1.0 12 1.0 42 1.0
 3 4 1.0 6 1.0 43 1.0
 4 5 1.0
 5
 6 7 1.0 14 1.0 44 1.0
 7 8 1.0
 8
 9 10 1.0 12 1.0 39 1.0 40 1.0
 10 11 1.0
 11
 12 13 1.0 41 1.0
 13 14 1.0
 14 15 1.0 45 1.0
 15 16 1.0
 16 17 1.0 26 1.0 34 1.0
 17 18 1.0 20 1.0 35 1.0
 18 19 1.0
 19
 20 21 1.0 28 1.0 36 1.0
 21 22 1.0
 22
 23 24 1.0 26 1.0 31 1.0 32 1.0
 24 25 1.0
 25
 26 27 1.0 33 1.0
 27 28 1.0
 28 29 1.0 37 1.0
 29 30 1.0
 30
 31
 32
 33
 34
 35
 36
 37
 38
 39
 40
 41
 42
 43
 44
 45

