# freq=raman b3lyp/6-31+g(2d,p) geom=connectivity

320 5195/5195.com

0 1
O           7.75900         7.74500        12.07100
C           8.36400         8.23200        13.27800
C           7.79700         9.53100        13.82600
O           7.75600        10.57400        12.84200
H           7.38200        10.12000        12.03300
C           8.40800         9.91200        15.16500
O           7.90300        11.19800        15.55300
H           8.24900        11.18000        16.49100
C           8.66700         5.83600        14.16400
O           8.19700         5.04000        13.06600
H           8.53000         4.10300        13.16500
C           8.06400         7.21600        14.36900
O           8.68600         7.58700        15.60800
C           8.04100         8.77100        16.10000
O           8.86000         8.94900        17.26500
C           8.15200         8.55700        18.45000
C           8.79300         7.24700        18.87700
O           8.33300         6.17600        18.03900
H           8.67700         6.43400        17.13600
C           8.56300         6.81400        20.31500
O           9.48800         5.78300        20.68700
H           9.10900         5.39500        21.52800
C           7.97400        10.97700        19.24000
O           8.56000        11.72600        18.16500
H           8.60100        12.72100        18.25600
C           8.51000         9.58200        19.51400
O           8.03300         9.15300        20.79800
C           8.73700         7.99100        21.26100
O           8.18400         7.56900        22.51700

