# freq=raman b3lyp/6-31+g(2df,p) geom=connectivity

280 9000.com

0 1
 O                  7.67636891    7.78319833   12.23339838
 C                  8.28300000    8.10000000   13.48900000
 C                  7.82200000    9.48700000   13.90500000
 O                  8.16600000   10.46700000   12.91400000
 H                  7.99600000   10.07000000   12.01200000
 C                  8.32300000    9.80500000   15.30400000
 O                  7.96400000   11.10900000   15.78400000
 H                  8.40800000   11.27500000   16.66400000
 C                  8.52700000    5.60600000   14.20700000
 O                  8.13900000    4.93300000   13.00100000
 H                  8.10000000    3.94300000   13.13900000
 C                  7.95300000    6.98900000   14.47200000
 O                  8.43300000    7.36700000   15.77000000
 C                  7.95300000    8.64500000   16.21400000
 O                  8.58900000    8.80700000   17.49000000
 C                  7.96300000    8.51700000   18.74800000
 C                  8.37000000    7.07700000   19.01400000
 O                  7.91900000    6.05400000   18.11500000
 H                  8.21000000    6.20800000   17.17100000
 C                  7.92500000    6.69100000   20.41500000
 O                  8.64500000    5.53500000   20.86600000
 H                  8.47600000    5.37200000   21.83800000
 C                  8.12500000   10.87400000   19.68100000
 O                  8.72900000   11.50700000   18.54400000
 H                  8.63000000   12.50100000   18.59700000
 C                  8.53300000    9.41700000   19.83200000
 O                  8.00000000    8.98900000   21.09400000
 C                  8.43700000    7.67200000   21.45800000
 O                  7.60600000    7.60800000   22.62700000
 H                  8.15884925    7.56509667   23.41065618
 H                  9.48478474    7.60382404   21.66391060
 H                  9.60006496    9.33876648   19.84432461
 H                  6.86607357    6.55268667   20.48166516
 H                  9.43961166    7.05018236   19.00343080
 H                  6.89930825    8.61245882   18.68206467
 H                  8.41246951   11.40541737   20.56409505
 H                  7.06111774   10.92487741   19.57869640
 H                  6.89120995    8.60861449   16.34119270
 H                  9.39125118    9.80230649   15.24290855
 H                  6.75358782    9.45916528   13.95619211
 H                  9.34420673    8.12511368   13.35442818
 H                  6.88792824    6.90015938   14.52327866
 H                  8.25436693    4.97892752   15.03001356
 H                  9.59338413    5.69364151   14.20037741
 H                  8.36023893    7.61837277   11.58013401

 1 2 1.0 45 1.0
 2 3 1.0 12 1.0 41 1.0
 3 4 1.0 6 1.0 40 1.0
 4 5 1.0
 5
 6 7 1.0 14 1.0 39 1.0
 7 8 1.0
 8
 9 10 1.0 12 1.0 43 1.0 44 1.0
 10 11 1.0
 11
 12 13 1.0 42 1.0
 13 14 1.0
 14 15 1.0 38 1.0
 15 16 1.0
 16 17 1.0 26 1.0 35 1.0
 17 18 1.0 20 1.0 34 1.0
 18 19 1.0
 19
 20 21 1.0 28 1.0 33 1.0
 21 22 1.0
 22
 23 24 1.0 26 1.0 36 1.0 37 1.0
 24 25 1.0
 25
 26 27 1.0 32 1.0
 27 28 1.0
 28 29 1.0 31 1.0
 29 30 1.0
 30
 31
 32
 33
 34
 35
 36
 37
 38
 39
 40
 41
 42
 43
 44
 45

