# freq=raman b3lyp/6-31+g(2d,p) geom=connectivity

473 5820/5820.com

0 1
O           7.72900         7.72900        12.19300
C           8.26900         8.11900        13.46400
C           7.71400         9.43800        13.97600
O           8.22800        10.46900        13.12000
H           8.04700        10.17700        12.18100
C           8.18600         9.76700        15.38300
O           7.68100        10.93800        16.04200
H           8.23700        11.23700        16.81700
C           8.62400         5.55900        14.24800
O           8.42700         4.81200        13.03800
H           8.40600         3.82900        13.21900
C           8.09100         6.96900        14.44300
O           8.66300         7.37600        15.69400
C           8.05600         8.54100        16.27100
O           8.84900         8.68300        17.45900
C           8.34700         8.38400        18.76900
C           8.99500         7.09400        19.24500
O           9.06600         5.98000        18.34300
H           9.33600         6.32400        17.44400
C           8.32400         6.79400        20.57500
O           8.93100         5.58100        21.04500
H           8.72400         5.25800        21.96800
C           8.12500        10.86500        19.49300
O           8.64600        11.55000        18.34400
H           8.68800        12.50600        18.63300
C           8.63300         9.46500        19.79900
O           8.05700         9.12100        21.06700
C           8.52100         7.88100        21.62000
O           7.60500         7.61800        22.69300

