# freq=raman b3lyp/6-31+g(2d,p) geom=connectivity

473 5820/5820.com

0 1
 O                  7.72900000    7.72900000   12.19300000
 C                  8.26900000    8.11900000   13.46400000
 C                  7.71400000    9.43800000   13.97600000
 O                  8.22800000   10.46900000   13.12000000
 H                  8.04700000   10.17700000   12.18100000
 C                  8.18600000    9.76700000   15.38300000
 O                  7.68100000   10.93800000   16.04200000
 H                  8.23700000   11.23700000   16.81700000
 C                  8.62400000    5.55900000   14.24800000
 O                  8.42700000    4.81200000   13.03800000
 H                  8.40600000    3.82900000   13.21900000
 C                  8.09100000    6.96900000   14.44300000
 O                  8.66300000    7.37600000   15.69400000
 C                  8.05600000    8.54100000   16.27100000
 O                  8.84900000    8.68300000   17.45900000
 C                  8.34700000    8.38400000   18.76900000
 C                  8.99500000    7.09400000   19.24500000
 O                  9.06600000    5.98000000   18.34300000
 H                  9.33600000    6.32400000   17.44400000
 C                  8.32400000    6.79400000   20.57500000
 O                  8.93100000    5.58100000   21.04500000
 H                  8.72400000    5.25800000   21.96800000
 C                  8.12500000   10.86500000   19.49300000
 O                  8.64600000   11.55000000   18.34400000
 H                  8.68800000   12.50600000   18.63300000
 C                  8.63300000    9.46500000   19.79900000
 O                  8.05700000    9.12100000   21.06700000
 C                  8.52100000    7.88100000   21.62000000
 O                  7.60500000    7.61800000   22.69300000
 H                  8.09750141    7.42182862   23.49334939
 H                  9.53421805    7.94209970   21.95846124
 H                  7.27768448    6.63311660   20.41930683
 H                 10.01018348    7.34271548   19.47400460
 H                  7.28888386    8.23726291   18.70769368
 H                  9.69412007    9.52243868   19.92399996
 H                  8.32549561   11.47442905   20.34932806
 H                  7.06305441   10.80384329   19.37710603
 H                  8.44714432    7.54211577   11.58394908
 H                  8.21557280    4.96730928   15.04045776
 H                  9.68113844    5.60910913   14.40563055
 H                  7.03687763    6.87147646   14.59861230
 H                  9.32159166    8.25571770   13.32887386
 H                  6.64470444    9.42773329   13.93856213
 H                  9.23797940    9.93779249   15.28776735
 H                  7.03195284    8.35350808   16.51813193

 1 2 1.0 38 1.0
 2 3 1.0 12 1.0 42 1.0
 3 4 1.0 6 1.0 43 1.0
 4 5 1.0
 5
 6 7 1.0 14 1.0 44 1.0
 7 8 1.0
 8
 9 10 1.0 12 1.0 39 1.0 40 1.0
 10 11 1.0
 11
 12 13 1.0 41 1.0
 13 14 1.0
 14 15 1.0 45 1.0
 15 16 1.0
 16 17 1.0 26 1.0 34 1.0
 17 18 1.0 20 1.0 33 1.0
 18 19 1.0
 19
 20 21 1.0 28 1.0 32 1.0
 21 22 1.0
 22
 23 24 1.0 26 1.0 36 1.0 37 1.0
 24 25 1.0
 25
 26 27 1.0 35 1.0
 27 28 1.0
 28 29 1.0 31 1.0
 29 30 1.0
 30
 31
 32
 33
 34
 35
 36
 37
 38
 39
 40
 41
 42
 43
 44
 45

