# freq=raman b3lyp/6-31+g(d,p) geom=connectivity

290 5000.com

0 1
 O                  7.46200000    7.76300000   12.15700000
 C                  8.01400000    8.05000000   13.45000000
 C                  7.59000000    9.41300000   13.97200000
 O                  7.88700000   10.40900000   12.98300000
 H                  7.74100000   10.05200000   12.06100000
 C                  8.22300000    9.72300000   15.31900000
 O                  7.60600000   10.90600000   15.84600000
 H                  7.62600000   10.82900000   16.84300000
 C                  7.96900000    5.53000000   14.23700000
 O                  7.87900000    4.82300000   12.99200000
 H                  7.99100000    3.83200000   13.06500000
 C                  7.62400000    6.99200000   14.47000000
 O                  8.14900000    7.33500000   15.76000000
 C                  7.86600000    8.62900000   16.31200000
 O                  8.68000000    8.76600000   17.48600000
 C                  8.17200000    8.30300000   18.74600000
 C                  8.57600000    6.91100000   19.20400000
 O                  8.19500000    5.96100000   18.19800000
 H                  8.47300000    6.20800000   17.27000000
 C                  8.19100000    6.57500000   20.63500000
 O                  8.64900000    5.32900000   21.18000000
 H                  8.16500000    5.31400000   22.05500000
 C                  8.00000000   10.73800000   19.61000000
 O                  8.19900000   11.35700000   18.33100000
 H                  8.24900000   12.33100000   18.55100000
 C                  8.50600000    9.32100000   19.82400000
 O                  7.89400000    8.91100000   21.05500000
 C                  8.48200000    7.71800000   21.59400000
 O                  7.61100000    7.56200000   22.72400000
 H                  8.17433983    7.62354616   11.52872889
 H                  8.13617084    7.45210091   23.52006393
 H                  9.51412735    7.82408689   21.85545498
 H                  9.08031937    8.04701707   13.36137664
 H                  6.52882739    9.39473832   14.10793823
 H                  6.55808381    7.03762419   14.55149305
 H                  7.36563880    4.97766252   14.92676704
 H                  8.98291201    5.41776614   14.55993343
 H                  9.28304864    9.84176447   15.23478666
 H                  6.83093087    8.69637348   16.57466464
 H                  7.10593265    8.29191788   18.65501876
 H                  9.56743450    9.34875058   19.95623732
 H                  8.46749735   11.36030547   20.34422213
 H                  6.94808314   10.73643172   19.80587868
 H                  9.64598792    6.91143599   19.19893509
 H                  7.12450827    6.49028007   20.61716931

 1 2 1.0 30 1.0
 2 3 1.0 12 1.0 33 1.0
 3 4 1.0 6 1.0 34 1.0
 4 5 1.0
 5
 6 7 1.0 14 1.0 38 1.0
 7 8 1.0
 8
 9 10 1.0 12 1.0 36 1.0 37 1.0
 10 11 1.0
 11
 12 13 1.0 35 1.0
 13 14 1.0
 14 15 1.0 39 1.0
 15 16 1.0
 16 17 1.0 26 1.0 40 1.0
 17 18 1.0 20 1.0 44 1.0
 18 19 1.0
 19
 20 21 1.0 28 1.0 45 1.0
 21 22 1.0
 22
 23 24 1.0 26 1.0 42 1.0 43 1.0
 24 25 1.0
 25
 26 27 1.0 41 1.0
 27 28 1.0
 28 29 1.0 32 1.0
 29 31 1.0
 30
 31
 32
 33
 34
 35
 36
 37
 38
 39
 40
 41
 42
 43
 44
 45

