# freq=raman b3lyp/6-31+g(2d,p) geom=connectivity

280 5002/5002.com

0 1
O           7.60900         7.51600        12.20500
C           8.17800         7.85700        13.47800
C           7.77800         9.23300        13.98500
O           8.21000        10.25600        13.07600
H           8.03300         9.92600        12.14800
C           8.18200         9.61700        15.39900
O           7.28700        10.67500        15.77200
H           7.60400        11.13600        16.60100
C           8.53800         5.51500        14.31600
O           8.01800         4.75000        13.21900
H           8.18800         3.76900        13.31600
C           7.80300         6.82800        14.53100
O           8.26800         7.26800        15.81500
C           7.83800         8.51300        16.38500
O           8.72100         8.61500        17.51000
C           8.11300         8.27700        18.76600
C           8.71100         6.99900        19.33200
O           8.47500         5.93500        18.39800
H           8.42600         6.35000        17.48900
C           8.12100         6.58800        20.67000
O           8.73500         5.36300        21.09700
H           8.42200         5.14100        22.02000
C           7.94000        10.70000        19.61600
O           8.17800        11.40400        18.38900
H           8.24700        12.37000        18.63600
C           8.39800         9.27500        19.87700
O           7.67800         8.89300        21.05800
C           8.30600         7.74200        21.64200
O           7.53600         7.56600        22.83900

