# freq=raman b3lyp/6-31+g(2d,p) geom=connectivity

450 7767/7767.com

0 1
 O                 10.52000000    8.20500000   11.77100000
 C                 11.40400000    7.88100000   12.85400000
 C                 11.76900000    9.20600000   13.50200000
 O                 12.61900000   10.03300000   12.69400000
 H                 12.26400000    9.94200000   11.76300000
 C                 12.41800000    9.07200000   14.87000000
 O                 12.60400000   10.23000000   15.69600000
 H                 12.86000000   11.03200000   15.15700000
 C                 10.21400000    5.66400000   13.42600000
 O                  9.75300000    4.89100000   14.54400000
 H                  9.51300000    4.00600000   14.14600000
 C                 10.76000000    6.99800000   13.91000000
 O                 11.70800000    6.79100000   14.96600000
 C                 11.63000000    8.04300000   15.66300000
 O                 12.14200000    7.77200000   16.97600000
 C                 11.36600000    8.15900000   18.12000000
 C                 10.47500000    7.00800000   18.55600000
 O                  9.35500000    6.69300000   17.71600000
 H                  9.65300000    6.11700000   16.95400000
 C                  9.90700000    7.14900000   19.95800000
 O                  9.30500000    5.88800000   20.28400000
 H                  8.49400000    5.90800000   19.69900000
 C                 13.12700000    9.68800000   18.79500000
 O                 13.96300000   10.41800000   19.70300000
 H                 14.88300000   10.03000000   19.76400000
 C                 12.36000000    8.45000000   19.23300000
 O                 11.74700000    8.60500000   20.52100000
 C                 11.03400000    7.43200000   20.93800000
 O                 10.53000000    7.64300000   22.26500000
 H                 11.03585254    8.43705322   10.99534063
 H                 10.98733212    5.12703399   12.91754653
 H                  9.39987795    5.83633144   12.75338781
 H                  9.93771722    7.54514242   14.32156554
 H                 12.28551343    7.40837887   12.47391667
 H                 10.85413877    9.74282700   13.64251942
 H                 13.39089468    8.65842137   14.70468617
 H                 10.60764583    8.35079167   15.73340055
 H                 11.26505913    7.73996530   22.87482441
 H                 11.70596142    6.59936903   20.94766998
 H                  9.17756443    7.93119840   19.98945494
 H                 11.09816088    6.13825632   18.56679086
 H                 10.78049786    9.02758567   17.90171995
 H                 13.04816464    7.63254220   19.28860741
 H                 12.40496739   10.38041204   18.41534954
 H                 13.74651829    9.39309114   17.97394833

 1 2 1.0 30 1.0
 2 3 1.0 12 1.0 34 1.0
 3 4 1.0 6 1.0 35 1.0
 4 5 1.0
 5
 6 7 1.0 14 1.0 36 1.0
 7 8 1.0
 8
 9 10 1.0 12 1.0 31 1.0 32 1.0
 10 11 1.0
 11
 12 13 1.0 33 1.0
 13 14 1.0
 14 15 1.0 37 1.0
 15 16 1.0
 16 17 1.0 26 1.0 42 1.0
 17 18 1.0 20 1.0 41 1.0
 18 19 1.0
 19
 20 21 1.0 28 1.0 40 1.0
 21 22 1.0
 22
 23 24 1.0 26 1.0 44 1.0 45 1.0
 24 25 1.0
 25
 26 27 1.0 43 1.0
 27 28 1.0
 28 29 1.0 39 1.0
 29 38 1.0
 30
 31
 32
 33
 34
 35
 36
 37
 38
 39
 40
 41
 42
 43
 44
 45

