# freq=raman b3lyp/6-31+g(2d,p) geom=connectivity

450 7767/7767.com

0 1
O          10.52000         8.20500        11.77100
C          11.40400         7.88100        12.85400
C          11.76900         9.20600        13.50200
O          12.61900        10.03300        12.69400
H          12.26400         9.94200        11.76300
C          12.41800         9.07200        14.87000
O          12.60400        10.23000        15.69600
H          12.86000        11.03200        15.15700
C          10.21400         5.66400        13.42600
O           9.75300         4.89100        14.54400
H           9.51300         4.00600        14.14600
C          10.76000         6.99800        13.91000
O          11.70800         6.79100        14.96600
C          11.63000         8.04300        15.66300
O          12.14200         7.77200        16.97600
C          11.36600         8.15900        18.12000
C          10.47500         7.00800        18.55600
O           9.35500         6.69300        17.71600
H           9.65300         6.11700        16.95400
C           9.90700         7.14900        19.95800
O           9.30500         5.88800        20.28400
H           8.49400         5.90800        19.69900
C          13.12700         9.68800        18.79500
O          13.96300        10.41800        19.70300
H          14.88300        10.03000        19.76400
C          12.36000         8.45000        19.23300
O          11.74700         8.60500        20.52100
C          11.03400         7.43200        20.93800
O          10.53000         7.64300        22.26500

