# freq=raman b3lyp/6-31+g(2d,p) geom=connectivity

483 9000/9000.com

0 1
O           7.51400         7.55800        12.33700
C           8.12600         7.90300        13.58900
C           7.63800         9.27000        14.04200
O           8.09100        10.30500        13.15700
H           7.90300        10.02800        12.21400
C           8.09300         9.60600        15.45300
O           7.41900        10.64600        16.17700
H           7.96000        10.86600        16.98800
C           8.58100         5.53700        14.32700
O           8.07800         4.81200        13.19600
H           7.99400         3.83100        13.37400
C           7.85900         6.83800        14.63900
O           8.56600         7.25800        15.81400
C           7.99300         8.43100        16.41100
O           8.92800         8.73100        17.45600
C           8.41900         8.39000        18.75300
C           8.76500         6.98000        19.20300
O           8.35500         6.04400        18.19500
H           8.63200         6.41400        17.30800
C           8.32400         6.65200        20.62100
O           8.84100         5.35900        20.96900
H           8.63500         5.27800        21.94400
C           8.44400        10.79200        19.48300
O           8.77300        11.53800        18.30200
H           8.66800        12.52400        18.43300
C           8.92200         9.38200        19.78800
O           8.41500         9.04300        21.08700
C           8.73700         7.74100        21.59700
O           7.89700         7.59000        22.75100

