# freq=raman b3lyp/6-31+g(2d,p) geom=connectivity

473 9478/9478.com

0 1
O           7.28400         7.65900        12.31500
C           7.98600         7.95000        13.53300
C           7.48100         9.32200        13.94800
O           7.69500        10.26100        12.88400
H           7.63400         9.75500        12.02400
C           7.99800         9.67500        15.33300
O           7.40500        10.91300        15.75000
H           7.86200        11.26600        16.56700
C           8.05300         5.47400        14.36100
O           7.41100         4.90400        13.21100
H           7.63700         3.93300        13.29000
C           7.62800         6.91500        14.58700
O           8.33600         7.34200        15.76000
C           7.68000         8.51500        16.26200
O           8.33700         8.71300        17.52300
C           7.71400         8.33600        18.75900
C           8.16300         6.92900        19.12000
O           7.80000         5.88500        18.20600
H           7.86400         6.38700        17.34400
C           7.66600         6.67100        20.53300
O           8.40300         5.53500        21.00800
H           8.11400         5.23700        21.91800
C           7.81700        10.82900        19.52500
O           8.43000        11.51600        18.42400
H           8.31600        12.50700        18.48000
C           8.20600         9.37700        19.75100
O           7.63200         9.05300        21.02600
C           8.00000         7.76300        21.53700
O           7.28400         7.59700        22.77000

