# freq=raman b3lyp/6-31+g(2d,p) geom=connectivity
310 6000.com
310 6000.com
C           8.34700         7.77100         2.97700
0 1
O           8.34500        10.24200        23.66800
H           8.25300         9.68800        22.84100
C           8.59700         9.69400        26.01200
O           8.21200        10.91700        26.65600
H           8.62600        11.03800        27.55800
C           8.49400         5.57100        24.83400
O           8.17800         4.88100        23.61600
H           8.35900         3.91600        23.80500
C           7.99600         6.95600        25.21200
O           8.71700         7.25000        26.41700
C           8.29300         8.52100        26.93000
O           9.04700         8.73500        28.13100
C           8.50300         8.36700        29.40700
C           8.89000         6.99800        29.94400
O           8.72300         6.05600        28.87500
H           9.07400         6.54300        28.07500
C           8.26300         6.59800        31.26900
O           8.92400         5.44200        31.80300
H           8.43800         5.33500        32.67000
C           8.37300        10.78300        30.41200
O           8.89300        11.37200        29.21100
H           8.71200        12.35500        29.24300
C           8.81700         9.33400        30.53700
O           8.08500         9.03400        31.73300
C           8.49300         7.75200        32.23200
O           7.66700         7.50400        33.37900
C           8.22500         7.81900        34.66400
C           7.71500         9.18100        35.10300
O           8.10300        10.18000        34.14800

