# freq=raman b3lyp/6-31+g(2d,p) geom=connectivity

423 7379/7379.com

0 1
O           7.50800         7.54800        12.38300
C           8.04500         8.04800        13.61600
C           7.65400         9.41200        14.16100
O           7.87900        10.39800        13.14300
H           7.72400        10.08000        12.20800
C           8.24300         9.64800        15.54200
O           7.83800        10.95300        15.97900
H           8.36500        11.18700        16.79600
C           7.75800         5.60900        14.41900
O           7.48200         4.98000        13.15900
H           7.58300         3.99200        13.27400
C           7.52200         7.08900        14.67300
O           8.12100         7.31000        15.95800
C           7.75800         8.58300        16.51200
O           8.59700         8.72000        17.66800
C           8.01800         8.42000        18.94600
C           8.65900         7.12000        19.40500
O           8.38300         6.04800        18.49200
H           8.40800         6.49100        17.59500
C           8.16400         6.69300        20.77700
O           8.90100         5.58100        21.30700
H           8.51500         5.36200        22.20300
C           7.92300        10.91000        19.53500
O           8.57800        11.58400        18.45100
H           8.45400        12.57500        18.51100
C           8.32300         9.50700        19.96300
O           7.83900         9.17300        21.27200
C           8.36900         7.90200        21.67500
O           7.69000         7.57700        22.89700

