# freq=raman b3lyp/6-31+g(2d,p) geom=connectivity

423 7379/7379.com

0 1
 O                  7.50800000    7.54800000   12.38300000
 C                  8.04500000    8.04800000   13.61600000
 C                  7.65400000    9.41200000   14.16100000
 O                  7.87900000   10.39800000   13.14300000
 H                  7.72400000   10.08000000   12.20800000
 C                  8.24300000    9.64800000   15.54200000
 O                  7.83800000   10.95300000   15.97900000
 H                  8.36500000   11.18700000   16.79600000
 C                  7.75800000    5.60900000   14.41900000
 O                  7.48200000    4.98000000   13.15900000
 H                  7.58300000    3.99200000   13.27400000
 C                  7.52200000    7.08900000   14.67300000
 O                  8.12100000    7.31000000   15.95800000
 C                  7.75800000    8.58300000   16.51200000
 O                  8.59700000    8.72000000   17.66800000
 C                  8.01800000    8.42000000   18.94600000
 C                  8.65900000    7.12000000   19.40500000
 O                  8.38300000    6.04800000   18.49200000
 H                  8.40800000    6.49100000   17.59500000
 C                  8.16400000    6.69300000   20.77700000
 O                  8.90100000    5.58100000   21.30700000
 H                  8.51500000    5.36200000   22.20300000
 C                  7.92300000   10.91000000   19.53500000
 O                  8.57800000   11.58400000   18.45100000
 H                  8.45400000   12.57500000   18.51100000
 C                  8.32300000    9.50700000   19.96300000
 O                  7.83900000    9.17300000   21.27200000
 C                  8.36900000    7.90200000   21.67500000
 O                  7.69000000    7.57700000   22.89700000
 H                  8.33601619    7.39448436   23.58325879
 H                  8.22754932    7.30918736   11.79408804
 H                  7.18791247    5.08000832   15.15389320
 H                  8.79073211    5.42544337   14.63035600
 H                  6.46756701    7.24523758   14.76606385
 H                  9.11236246    7.98123997   13.58164186
 H                  6.59391661    9.37985623   14.30273910
 H                  9.31066739    9.61109287   15.48179867
 H                  6.71526665    8.66200973   16.73863765
 H                  8.02640747   11.53682288   20.39598779
 H                  6.88161706   10.87362511   19.29189829
 H                  9.38945036    9.52777362   20.04757005
 H                  6.95993092    8.29335069   18.84930573
 H                  9.71841820    7.26192413   19.45389397
 H                  7.12325439    6.44935460   20.72815856
 H                  9.41432069    8.01077929   21.87592718

 1 2 1.0 31 1.0
 2 3 1.0 12 1.0 35 1.0
 3 4 1.0 6 1.0 36 1.0
 4 5 1.0
 5
 6 7 1.0 14 1.0 37 1.0
 7 8 1.0
 8
 9 10 1.0 12 1.0 32 1.0 33 1.0
 10 11 1.0
 11
 12 13 1.0 34 1.0
 13 14 1.0
 14 15 1.0 38 1.0
 15 16 1.0
 16 17 1.0 26 1.0 42 1.0
 17 18 1.0 20 1.0 43 1.0
 18 19 1.0
 19
 20 21 1.0 28 1.0 44 1.0
 21 22 1.0
 22
 23 24 1.0 26 1.0 39 1.0 40 1.0
 24 25 1.0
 25
 26 27 1.0 41 1.0
 27 28 1.0
 28 29 1.0 45 1.0
 29 30 1.0
 30
 31
 32
 33
 34
 35
 36
 37
 38
 39
 40
 41
 42
 43
 44
 45

