# freq=raman b3lyp/6-31+g(2d,p) geom=connectivity

450 8444/8444.com

0 1
 O                 10.61800000    7.54300000   11.48200000
 C                 11.47800000    7.51000000   12.63100000
 C                 11.66400000    8.85800000   13.30700000
 O                 12.45900000    9.63200000   12.39600000
 H                 12.36200000    9.26900000   11.47000000
 C                 12.22700000    9.04100000   14.70700000
 O                 11.84600000   10.27300000   15.33700000
 H                 12.41300000   10.95400000   14.87300000
 C                 10.44900000    5.21900000   13.23900000
 O                  9.54300000    4.78000000   14.26100000
 H                  9.28700000    3.81400000   14.30300000
 C                 11.00800000    6.55100000   13.71300000
 O                 11.71300000    6.70200000   14.95400000
 C                 11.59000000    7.98200000   15.59100000
 O                 12.13100000    7.68800000   16.88800000
 C                 11.32300000    8.13800000   17.98500000
 C                 10.41100000    6.97000000   18.32300000
 O                  9.18600000    7.02300000   17.57700000
 H                  9.38400000    6.93100000   16.60200000
 C                  9.83200000    7.06200000   19.72500000
 O                  9.49900000    5.69000000   19.98000000
 H                  8.81800000    5.49900000   19.27300000
 C                 13.08100000    9.68100000   18.90200000
 O                 12.40400000   10.91700000   18.63100000
 H                 12.13900000   10.94200000   17.66700000
 C                 12.12700000    8.53800000   19.21200000
 O                 11.37600000    8.74800000   20.41600000
 C                 10.77400000    7.51300000   20.82900000
 O                 10.10000000    7.77900000   22.06800000
 H                 10.74883465    7.92751722   22.75977759
 H                 11.53286682    6.77421167   20.98135798
 H                  8.94656000    7.66274109   19.72252223
 H                 10.90895195    6.03459006   18.17483759
 H                 10.72858198    8.96900147   17.66718909
 H                 12.75445158    7.69662024   19.42004954
 H                 13.73256614    9.82192540   19.73895973
 H                 13.66901119    9.41638649   18.04811328
 H                 11.15101446    7.56592205   10.68389589
 H                 11.24073637    4.50924427   13.11941604
 H                  9.92632020    5.34739889   12.31421919
 H                 10.08779554    7.02409640   13.98558679
 H                 12.44042630    7.17859155   12.30114540
 H                 10.69461639    9.31066218   13.32409888
 H                 13.29163732    8.93410662   14.70239793
 H                 10.55076522    8.21215233   15.70018326

 1 2 1.0 38 1.0
 2 3 1.0 12 1.0 42 1.0
 3 4 1.0 6 1.0 43 1.0
 4 5 1.0
 5
 6 7 1.0 14 1.0 44 1.0
 7 8 1.0
 8
 9 10 1.0 12 1.0 39 1.0 40 1.0
 10 11 1.0
 11
 12 13 1.0 41 1.0
 13 14 1.0
 14 15 1.0 45 1.0
 15 16 1.0
 16 17 1.0 26 1.0 34 1.0
 17 18 1.0 20 1.0 33 1.0
 18 19 1.0
 19
 20 21 1.0 28 1.0 32 1.0
 21 22 1.0
 22
 23 24 1.0 26 1.0 36 1.0 37 1.0
 24 25 1.0
 25
 26 27 1.0 35 1.0
 27 28 1.0
 28 29 1.0 31 1.0
 29 30 1.0
 30
 31
 32
 33
 34
 35
 36
 37
 38
 39
 40
 41
 42
 43
 44
 45

