# freq=raman b3lyp/6-31+g(2d,p) geom=connectivity

450 8444/8444.com

0 1
O          10.61800         7.54300        11.48200
C          11.47800         7.51000        12.63100
C          11.66400         8.85800        13.30700
O          12.45900         9.63200        12.39600
H          12.36200         9.26900        11.47000
C          12.22700         9.04100        14.70700
O          11.84600        10.27300        15.33700
H          12.41300        10.95400        14.87300
C          10.44900         5.21900        13.23900
O           9.54300         4.78000        14.26100
H           9.28700         3.81400        14.30300
C          11.00800         6.55100        13.71300
O          11.71300         6.70200        14.95400
C          11.59000         7.98200        15.59100
O          12.13100         7.68800        16.88800
C          11.32300         8.13800        17.98500
C          10.41100         6.97000        18.32300
O           9.18600         7.02300        17.57700
H           9.38400         6.93100        16.60200
C           9.83200         7.06200        19.72500
O           9.49900         5.69000        19.98000
H           8.81800         5.49900        19.27300
C          13.08100         9.68100        18.90200
O          12.40400        10.91700        18.63100
H          12.13900        10.94200        17.66700
C          12.12700         8.53800        19.21200
O          11.37600         8.74800        20.41600
C          10.77400         7.51300        20.82900
O          10.10000         7.77900        22.06800

