# freq=raman b3lyp/6-31+g(2d,p) geom=connectivity

310 8469/8469.com

0 1
O           7.51000         7.91200        12.17100
C           8.10900         8.22200        13.43800
C           7.62100         9.54600        14.00400
O           7.65100        10.65400        13.09200
H           7.41400        10.23100        12.21800
C           8.27700         9.92000        15.32300
O           7.52600        11.01300        15.87100
H           8.10800        11.30800        16.62900
C           8.12000         5.74900        14.18500
O           7.46000         5.07600        13.10300
H           7.60900         4.08800        13.08900
C           7.87300         7.20600        14.54300
O           8.68800         7.58700        15.66100
C           8.30000         8.79100        16.34000
O           9.23000         8.97500        17.41700
C           8.69700         8.61400        18.70000
C           9.18700         7.25700        19.17600
O           8.92000         6.24800        18.19200
H           8.96600         6.68500        17.29300
C           8.81700         6.82100        20.58500
O           9.40400         5.64800        21.16600
H           8.82300         5.40700        21.94400
C           8.10200        10.99600        19.54400
O           8.45100        11.83600        18.43400
H           8.38300        12.79900        18.69500
C           8.79700         9.66700        19.79200
O           8.30000         9.16100        21.04000
C           9.02700         8.01400        21.50300
O           8.35200         7.69500        22.72900

