# freq=raman b3lyp/6-31+g(2d,p) geom=connectivity

450 8424/8424.com

0 1
 O                 10.28200000    7.89900000   11.67000000
 C                 10.95500000    7.78000000   12.93100000
 C                 11.40200000    9.09800000   13.54200000
 O                 12.11100000    9.91700000   12.60000000
 H                 11.79300000    9.58900000   11.71000000
 C                 12.08500000    8.99100000   14.89500000
 O                 12.39900000   10.33000000   15.30300000
 H                 12.27600000   10.76500000   14.41100000
 C                 10.24800000    5.53300000   13.54500000
 O                  9.58700000    4.45100000   14.21700000
 H                  9.40200000    3.63300000   13.67200000
 C                 10.16400000    6.99200000   13.96200000
 O                 10.74000000    7.00800000   15.27700000
 C                 11.09600000    8.29000000   15.81400000
 O                 11.78300000    7.93400000   17.02200000
 C                 11.06600000    8.12800000   18.25000000
 C                 10.17000000    6.94200000   18.56800000
 O                  9.12900000    6.61800000   17.63500000
 H                  9.68800000    6.67800000   16.80800000
 C                  9.53600000    7.10800000   19.94000000
 O                  9.18900000    5.77000000   20.32600000
 H                  8.46600000    5.55700000   19.66800000
 C                 12.95100000    9.67900000   19.00700000
 O                 12.22900000   10.90500000   18.81700000
 H                 11.83600000   10.98900000   17.90200000
 C                 12.08100000    8.47500000   19.32700000
 O                 11.29600000    8.69400000   20.50800000
 C                 10.63300000    7.49000000   20.92000000
 O                 10.04400000    7.94500000   22.14700000
 H                 10.73801434    8.17561524   22.76890088
 H                 11.32458726    6.69009350   21.08357458
 H                  8.70343277    7.78006648   19.94764559
 H                 10.80823340    6.08495482   18.62306077
 H                 10.43216038    8.98037009   18.12111026
 H                 12.71457985    7.62780377   19.48742170
 H                 13.50201058    9.46970207   18.11398168
 H                 13.64525589    9.81681535   19.80944357
 H                 10.93112431    7.96544997   10.96585369
 H                 11.28914462    5.28623183   13.54016809
 H                  9.91644011    5.49639732   12.52832489
 H                  9.14530336    7.31815208   13.98996387
 H                 11.84621530    7.21902606   12.74141223
 H                 10.49408631    9.62916437   13.73810495
 H                 12.98113225    8.41267671   14.80903982
 H                 10.23406386    8.89281047   16.01043227

 1 2 1.0 38 1.0
 2 3 1.0 12 1.0 42 1.0
 3 4 1.0 6 1.0 43 1.0
 4 5 1.0
 5
 6 7 1.0 14 1.0 44 1.0
 7 8 1.0
 8
 9 10 1.0 12 1.0 39 1.0 40 1.0
 10 11 1.0
 11
 12 13 1.0 41 1.0
 13 14 1.0
 14 15 1.0 45 1.0
 15 16 1.0
 16 17 1.0 26 1.0 34 1.0
 17 18 1.0 20 1.0 33 1.0
 18 19 1.0
 19
 20 21 1.0 28 1.0 32 1.0
 21 22 1.0
 22
 23 24 1.0 26 1.0 36 1.0 37 1.0
 24 25 1.0
 25
 26 27 1.0 35 1.0
 27 28 1.0
 28 29 1.0 31 1.0
 29 30 1.0
 30
 31
 32
 33
 34
 35
 36
 37
 38
 39
 40
 41
 42
 43
 44
 45

