# freq=raman b3lyp/6-31+g(2d,p) geom=connectivity

310 9178/9178.com

0 1
 O                  7.56500000    7.65200000   12.41200000
 C                  8.19700000    7.95400000   13.66400000
 C                  7.56800000    9.22200000   14.21700000
 O                  7.79300000   10.23900000   13.22900000
 H                  7.67000000    9.82700000   12.32600000
 C                  8.23400000    9.68400000   15.50200000
 O                  7.83200000   10.84100000   16.25100000
 H                  8.32600000   10.90100000   17.11800000
 C                  8.67400000    5.46700000   14.17700000
 O                  7.94000000    4.82000000   13.12800000
 H                  7.97800000    3.86000000   13.40400000
 C                  8.02500000    6.77300000   14.60600000
 O                  8.59800000    7.22400000   15.84200000
 C                  8.04100000    8.44200000   16.35600000
 O                  8.85200000    8.66000000   17.52000000
 C                  8.34800000    8.31200000   18.81700000
 C                  8.73900000    6.92400000   19.29800000
 O                  8.43200000    5.93600000   18.30300000
 H                  8.97600000    6.18000000   17.49900000
 C                  8.18000000    6.46700000   20.63500000
 O                  8.83600000    5.27200000   21.08400000
 H                  8.65800000    5.19800000   22.06500000
 C                  7.92000000   10.71900000   19.51800000
 O                  8.58700000   11.58100000   18.58400000
 H                  8.60200000   12.56600000   18.75700000
 C                  8.45900000    9.35500000   19.91700000
 O                  7.80700000    8.90200000   21.11300000
 C                  8.27600000    7.63700000   21.60100000
 O                  7.60400000    7.33800000   22.83300000
 H                  8.25382786    7.17134285   23.51969436
 H                  7.81134110   11.27890536   20.42331720
 H                  6.93633248   10.55488037   19.13023337
 H                  9.49825970    9.47404533   20.14209438
 H                  9.31318934    7.76054863   21.83310777
 H                  7.14357122    6.23914329   20.49789892
 H                  9.80379000    6.93145765   19.40319806
 H                  7.29304451    8.23370267   18.65625660
 H                  9.66675757    5.66906952   13.83276124
 H                  8.72530489    4.81099043   15.02075308
 H                  8.23656613    7.49114023   11.74512440
 H                  6.97911320    6.60235435   14.75398940
 H                  9.24069100    8.12265670   13.49918488
 H                  6.51874345    9.08021148   14.37145613
 H                  9.28026358    9.78432107   15.30157996
 H                  7.01354986    8.31324731   16.62557180

 1 2 1.0 40 1.0
 2 3 1.0 12 1.0 42 1.0
 3 4 1.0 6 1.0 43 1.0
 4 5 1.0
 5
 6 7 1.0 14 1.0 44 1.0
 7 8 1.0
 8
 9 10 1.0 12 1.0 38 1.0 39 1.0
 10 11 1.0
 11
 12 13 1.0 41 1.0
 13 14 1.0
 14 15 1.0 45 1.0
 15 16 1.0
 16 17 1.0 26 1.0 37 1.0
 17 18 1.0 20 1.0 36 1.0
 18 19 1.0
 19
 20 21 1.0 28 1.0 35 1.0
 21 22 1.0
 22
 23 24 1.0 26 1.0 31 1.0 32 1.0
 24 25 1.0
 25
 26 27 1.0 33 1.0
 27 28 1.0
 28 29 1.0 34 1.0
 29 30 1.0
 30
 31
 32
 33
 34
 35
 36
 37
 38
 39
 40
 41
 42
 43
 44
 45

