# freq=raman b3lyp/6-31+g(2d,p) geom=connectivity

310 5137/5137.com

0 1
O           7.90700         7.56000        12.24100
C           8.54200         7.99600        13.45200
C           7.80400         9.25300        13.88000
O           7.96400        10.33900        12.95500
H           7.61200        10.08500        12.05500
C           8.12100         9.65500        15.31100
O           7.38600        10.79700        15.77500
H           7.70500        11.00000        16.70000
C           8.64700         5.52100        14.17800
O           8.33200         4.75000        13.01000
H           8.28600         3.75900        13.13200
C           8.17200         6.93400        14.47400
O           8.71600         7.30400        15.74900
C           8.06700         8.47500        16.26700
O           8.69100         8.88600        17.49200
C           7.98800         8.52300        18.68900
C           8.43500         7.15500        19.18000
O           8.13100         6.09700        18.26100
H           8.49800         6.36900        17.37100
C           7.88400         6.86000        20.56600
O           8.31300         5.59400        21.09000
H           8.03600         5.43900        22.03800
C           7.98100        10.96100        19.58200
O           8.25300        11.61400        18.33300
H           8.46100        12.56100        18.57400
C           8.42300         9.51700        19.75300
O           7.91600         9.19700        21.05800
C           8.38800         7.92500        21.52600
O           7.68700         7.90800        22.77800

