# freq=raman b3lyp/6-31+g(2d,p) geom=connectivity

310 5137/5137.com

0 1
 O                  7.90700000    7.56000000   12.24100000
 C                  8.54200000    7.99600000   13.45200000
 C                  7.80400000    9.25300000   13.88000000
 O                  7.96400000   10.33900000   12.95500000
 H                  7.61200000   10.08500000   12.05500000
 C                  8.12100000    9.65500000   15.31100000
 O                  7.38600000   10.79700000   15.77500000
 H                  7.70500000   11.00000000   16.70000000
 C                  8.64700000    5.52100000   14.17800000
 O                  8.33200000    4.75000000   13.01000000
 H                  8.28600000    3.75900000   13.13200000
 C                  8.17200000    6.93400000   14.47400000
 O                  8.71600000    7.30400000   15.74900000
 C                  8.06700000    8.47500000   16.26700000
 O                  8.69100000    8.88600000   17.49200000
 C                  7.98800000    8.52300000   18.68900000
 C                  8.43500000    7.15500000   19.18000000
 O                  8.13100000    6.09700000   18.26100000
 H                  8.49800000    6.36900000   17.37100000
 C                  7.88400000    6.86000000   20.56600000
 O                  8.31300000    5.59400000   21.09000000
 H                  8.03600000    5.43900000   22.03800000
 C                  7.98100000   10.96100000   19.58200000
 O                  8.25300000   11.61400000   18.33300000
 H                  8.46100000   12.56100000   18.57400000
 C                  8.42300000    9.51700000   19.75300000
 O                  7.91600000    9.19700000   21.05800000
 C                  8.38800000    7.92500000   21.52600000
 O                  7.68700000    7.90800000   22.77800000
 H                  8.32043020    7.89820602   23.49929762
 H                  8.44758331   11.53523094   20.35495462
 H                  6.92347976   10.99602269   19.74113624
 H                  9.49191260    9.50148254   19.79866253
 H                  6.92872632    8.55479264   18.54125529
 H                  9.50060704    7.19082725   19.26998915
 H                  6.81477750    6.88721399   20.53562489
 H                  9.45064560    7.90584866   21.64976408
 H                  8.57710633    7.32713578   11.59421428
 H                  8.32949085    4.92842820   15.01043414
 H                  9.71547411    5.55997988   14.21975685
 H                  7.10558753    6.91409172   14.55925322
 H                  9.59782649    8.13662166   13.35023574
 H                  6.76347507    9.00396434   13.86624817
 H                  9.14532944    9.96401870   15.29848427
 H                  7.04208784    8.23996223   16.46502098

 1 2 1.0 38 1.0
 2 3 1.0 12 1.0 42 1.0
 3 4 1.0 6 1.0 43 1.0
 4 5 1.0
 5
 6 7 1.0 14 1.0 44 1.0
 7 8 1.0
 8
 9 10 1.0 12 1.0 39 1.0 40 1.0
 10 11 1.0
 11
 12 13 1.0 41 1.0
 13 14 1.0
 14 15 1.0 45 1.0
 15 16 1.0
 16 17 1.0 26 1.0 34 1.0
 17 18 1.0 20 1.0 35 1.0
 18 19 1.0
 19
 20 21 1.0 28 1.0 36 1.0
 21 22 1.0
 22
 23 24 1.0 26 1.0 31 1.0 32 1.0
 24 25 1.0
 25
 26 27 1.0 33 1.0
 27 28 1.0
 28 29 1.0 37 1.0
 29 30 1.0
 30
 31
 32
 33
 34
 35
 36
 37
 38
 39
 40
 41
 42
 43
 44
 45

