# freq=raman b3lyp/6-31+g(2df,p) geom=connectivity

450 10000.com

0 1
 O                 10.80800000    8.47800000   11.28100000
 C                 11.72000000    8.18100000   12.34800000
 C                 12.09400000    9.56900000   12.83900000
 O                 13.20300000    9.86800000   11.97800000
 H                 12.93300000    9.60800000   11.05100000
 C                 12.63500000    9.56500000   14.26000000
 O                 12.70000000   10.90600000   14.76500000
 H                 13.00200000   11.60500000   14.11600000
 C                 11.12700000    5.95800000   13.03500000
 O                 10.88100000    4.91500000   13.98900000
 H                 10.88000000    4.05100000   13.48600000
 C                 10.99900000    7.41600000   13.44600000
 O                 11.64400000    7.42300000   14.72800000
 C                 11.76400000    8.76700000   15.21700000
 O                 12.34700000    8.54500000   16.50900000
 C                 11.51100000    8.55400000   17.67500000
 C                 11.02100000    7.23200000   18.24500000
 O                 10.30600000    6.50000000   17.24000000
 H                 10.63500000    6.88000000   16.37600000
 C                 10.19800000    7.42800000   19.50800000
 O                  9.55800000    6.25700000   20.03600000
 H                  9.01000000    6.02000000   19.23400000
 C                 12.95600000   10.44300000   18.58200000
 O                 13.78700000   10.78300000   19.70000000
 H                 14.67300000   10.32400000   19.77200000
 C                 12.14500000    9.19700000   18.89800000
 O                 11.38800000    9.30200000   20.11300000
 C                 11.02100000    8.01900000   20.64100000
 O                 10.31100000    8.23700000   21.86900000
 H                 11.30329452    8.69852202   10.48875422
 H                 12.12219094    5.82033460   12.66683803
 H                 10.45625417    5.80110259   12.21623066
 H                  9.97250802    7.70856612   13.52096181
 H                 12.57693175    7.64764383   11.99289556
 H                 11.29385130   10.26816930   12.71320517
 H                 13.61988743    9.14681785   14.25547830
 H                 10.79831455    9.21768417   15.31310090
 H                 10.93925979    8.36387621   22.58369718
 H                 13.57081185   10.25863337   17.72589526
 H                 12.29165874   11.25545973   18.37352967
 H                 12.89980265    8.48598850   19.16188558
 H                 10.64375755    9.12998565   17.42795532
 H                 11.88322622    6.65642778   18.50991992
 H                  9.42667411    8.13169657   19.27397538
 H                 11.89459566    7.42620294   20.81513293

 1 2 1.0 30 1.0
 2 3 1.0 12 1.0 34 1.0
 3 4 1.0 6 1.0 35 1.0
 4 5 1.0
 5
 6 7 1.0 14 1.0 36 1.0
 7 8 1.0
 8
 9 10 1.0 12 1.0 31 1.0 32 1.0
 10 11 1.0
 11
 12 13 1.0 33 1.0
 13 14 1.0
 14 15 1.0 37 1.0
 15 16 1.0
 16 17 1.0 26 1.0 42 1.0
 17 18 1.0 20 1.0 43 1.0
 18 19 1.0
 19
 20 21 1.0 28 1.0 44 1.0
 21 22 1.0
 22
 23 24 1.0 26 1.0 39 1.0 40 1.0
 24 25 1.0
 25
 26 27 1.0 41 1.0
 27 28 1.0
 28 29 1.0 45 1.0
 29 38 1.0
 30
 31
 32
 33
 34
 35
 36
 37
 38
 39
 40
 41
 42
 43
 44
 45

