# freq=raman b3lyp/6-31+g(2d,p) geom=connectivity

300 7061/7061.com

0 1
 O                  7.92700000    7.47100000   12.33200000
 C                  8.37800000    7.94900000   13.60800000
 C                  7.72200000    9.25000000   14.04100000
 O                  8.05300000   10.24800000   13.06500000
 H                  8.17500000    9.80800000   12.17500000
 C                  7.92900000    9.65000000   15.49300000
 O                  7.19600000   10.86500000   15.70700000
 H                  7.41300000   11.21400000   16.61800000
 C                  8.18400000    5.47400000   14.38700000
 O                  7.72100000    4.75300000   13.23600000
 H                  7.91900000    3.78300000   13.37900000
 C                  7.89000000    6.94400000   14.63800000
 O                  8.39800000    7.38000000   15.90700000
 C                  7.66800000    8.49300000   16.44400000
 O                  8.35100000    8.82200000   17.66200000
 C                  7.80600000    8.39000000   18.91800000
 C                  8.46300000    7.12100000   19.43300000
 O                  8.50500000    6.00600000   18.52900000
 H                  8.80900000    6.30500000   17.62400000
 C                  7.81400000    6.67300000   20.73200000
 O                  8.15600000    5.43000000   21.36100000
 H                  7.74900000    5.48400000   22.27400000
 C                  7.85600000   10.81700000   19.72300000
 O                  8.10900000   11.49700000   18.48500000
 H                  8.13500000   12.47900000   18.67500000
 C                  8.13200000    9.35700000   20.04500000
 O                  7.54700000    9.04000000   21.31600000
 C                  8.04700000    7.77000000   21.75800000
 O                  7.24900000    7.62300000   22.94100000
 H                  7.82312458    7.52812338   23.70453087
 H                  8.39367097   11.37295060   20.46241115
 H                  6.81056625   10.95123914   19.90725018
 H                  9.19016830    9.28524998   20.18653365
 H                  6.74751568    8.25473002   18.83917759
 H                  9.47795101    7.37116885   19.66145129
 H                  6.76072111    6.63805741   20.54684440
 H                  9.08455833    7.84083124   22.00970547
 H                  8.68570211    7.26466086   11.78118672
 H                  7.81603852    4.94438308   15.24082098
 H                  9.24944658    5.37564567   14.39407184
 H                  6.82504779    7.03903167   14.67978234
 H                  9.44457210    8.03110137   13.63215182
 H                  6.66901812    9.08816356   13.94130982
 H                  8.96449528    9.89802941   15.59850329
 H                  6.62750616    8.28719081   16.58512101

 1 2 1.0 38 1.0
 2 3 1.0 12 1.0 42 1.0
 3 4 1.0 6 1.0 43 1.0
 4 5 1.0
 5
 6 7 1.0 14 1.0 44 1.0
 7 8 1.0
 8
 9 10 1.0 12 1.0 39 1.0 40 1.0
 10 11 1.0
 11
 12 13 1.0 41 1.0
 13 14 1.0
 14 15 1.0 45 1.0
 15 16 1.0
 16 17 1.0 26 1.0 34 1.0
 17 18 1.0 20 1.0 35 1.0
 18 19 1.0
 19
 20 21 1.0 28 1.0 36 1.0
 21 22 1.0
 22
 23 24 1.0 26 1.0 31 1.0 32 1.0
 24 25 1.0
 25
 26 27 1.0 33 1.0
 27 28 1.0
 28 29 1.0 37 1.0
 29 30 1.0
 30
 31
 32
 33
 34
 35
 36
 37
 38
 39
 40
 41
 42
 43
 44
 45

