# freq=raman b3lyp/6-31+g(2d,p) geom=connectivity

300 7061/7061.com

0 1
O           7.92700         7.47100        12.33200
C           8.37800         7.94900        13.60800
C           7.72200         9.25000        14.04100
O           8.05300        10.24800        13.06500
H           8.17500         9.80800        12.17500
C           7.92900         9.65000        15.49300
O           7.19600        10.86500        15.70700
H           7.41300        11.21400        16.61800
C           8.18400         5.47400        14.38700
O           7.72100         4.75300        13.23600
H           7.91900         3.78300        13.37900
C           7.89000         6.94400        14.63800
O           8.39800         7.38000        15.90700
C           7.66800         8.49300        16.44400
O           8.35100         8.82200        17.66200
C           7.80600         8.39000        18.91800
C           8.46300         7.12100        19.43300
O           8.50500         6.00600        18.52900
H           8.80900         6.30500        17.62400
C           7.81400         6.67300        20.73200
O           8.15600         5.43000        21.36100
H           7.74900         5.48400        22.27400
C           7.85600        10.81700        19.72300
O           8.10900        11.49700        18.48500
H           8.13500        12.47900        18.67500
C           8.13200         9.35700        20.04500
O           7.54700         9.04000        21.31600
C           8.04700         7.77000        21.75800
O           7.24900         7.62300        22.94100

