# freq=raman b3lyp/6-31+g(2d,p) geom=connectivity

493 6391/6391.com

0 1
 O                  7.51700000    7.40900000   12.46500000
 C                  8.06100000    7.87400000   13.70900000
 C                  7.31900000    9.07600000   14.27100000
 O                  7.07800000   10.13100000   13.32900000
 H                  6.69000000    9.77100000   12.48100000
 C                  7.94700000    9.53500000   15.57700000
 O                  7.37600000   10.69500000   16.19900000
 H                  7.85800000   10.99800000   17.02100000
 C                  8.36700000    5.31500000   14.39200000
 O                  7.81700000    4.64400000   13.24900000
 H                  7.87100000    3.65000000   13.34600000
 C                  7.94900000    6.74000000   14.71500000
 O                  8.53600000    7.12600000   15.96600000
 C                  7.89700000    8.30700000   16.47200000
 O                  8.68500000    8.64300000   17.62300000
 C                  8.16300000    8.31700000   18.91900000
 C                  8.77200000    6.99700000   19.36200000
 O                  8.68900000    5.94400000   18.39100000
 H                  8.74000000    6.39300000   17.49900000
 C                  8.27800000    6.66300000   20.76100000
 O                  8.64000000    5.32100000   21.11800000
 H                  8.50300000    5.21700000   22.10300000
 C                  8.08600000   10.76400000   19.56300000
 O                  8.52000000   11.43000000   18.36900000
 H                  8.58400000   12.39200000   18.63300000
 C                  8.63000000    9.38400000   19.89700000
 O                  8.32500000    9.03200000   21.25400000
 C                  8.65400000    7.73400000   21.77100000
 O                  7.69900000    7.65700000   22.84000000
 H                  8.16186747    7.59657626   23.67886988
 H                  9.66612306    7.66183363   22.11055695
 H                  7.20938294    6.67401337   20.70774319
 H                  9.81856180    7.19080292   19.47176712
 H                  7.09483132    8.25802557   18.89807896
 H                  9.69566269    9.43820768   19.81747288
 H                  8.32005737   11.40527329   20.38694522
 H                  7.02052522   10.68087472   19.51052444
 H                  8.23325848    7.18519575   11.86626346
 H                  8.13818730    4.71702504   15.24930432
 H                  9.43060786    5.31692465   14.27523262
 H                  6.89985549    6.66787700   14.91246916
 H                  9.09187521    8.12616285   13.57258080
 H                  6.34888862    8.71070210   14.53621946
 H                  8.97631302    9.75181619   15.38102693
 H                  6.88894743    8.09357969   16.76041254

 1 2 1.0 38 1.0
 2 3 1.0 12 1.0 42 1.0
 3 4 1.0 6 1.0 43 1.0
 4 5 1.0
 5
 6 7 1.0 14 1.0 44 1.0
 7 8 1.0
 8
 9 10 1.0 12 1.0 39 1.0 40 1.0
 10 11 1.0
 11
 12 13 1.0 41 1.0
 13 14 1.0
 14 15 1.0 45 1.0
 15 16 1.0
 16 17 1.0 26 1.0 34 1.0
 17 18 1.0 20 1.0 33 1.0
 18 19 1.0
 19
 20 21 1.0 28 1.0 32 1.0
 21 22 1.0
 22
 23 24 1.0 26 1.0 36 1.0 37 1.0
 24 25 1.0
 25
 26 27 1.0 35 1.0
 27 28 1.0
 28 29 1.0 31 1.0
 29 30 1.0
 30
 31
 32
 33
 34
 35
 36
 37
 38
 39
 40
 41
 42
 43
 44
 45

