# freq=raman b3lyp/6-31+g(2d,p) geom=connectivity

493 6391/6391.com

0 1
O           7.51700         7.40900        12.46500
C           8.06100         7.87400        13.70900
C           7.31900         9.07600        14.27100
O           7.07800        10.13100        13.32900
H           6.69000         9.77100        12.48100
C           7.94700         9.53500        15.57700
O           7.37600        10.69500        16.19900
H           7.85800        10.99800        17.02100
C           8.36700         5.31500        14.39200
O           7.81700         4.64400        13.24900
H           7.87100         3.65000        13.34600
C           7.94900         6.74000        14.71500
O           8.53600         7.12600        15.96600
C           7.89700         8.30700        16.47200
O           8.68500         8.64300        17.62300
C           8.16300         8.31700        18.91900
C           8.77200         6.99700        19.36200
O           8.68900         5.94400        18.39100
H           8.74000         6.39300        17.49900
C           8.27800         6.66300        20.76100
O           8.64000         5.32100        21.11800
H           8.50300         5.21700        22.10300
C           8.08600        10.76400        19.56300
O           8.52000        11.43000        18.36900
H           8.58400        12.39200        18.63300
C           8.63000         9.38400        19.89700
O           8.32500         9.03200        21.25400
C           8.65400         7.73400        21.77100
O           7.69900         7.65700        22.84000

