# freq=raman b3lyp/6-31+g(d,p) geom=connectivity

450 5000.com

0 1
O          10.11100         7.42000        11.27500
C          10.89300         7.41300        12.47900
C          10.89800         8.86700        12.92000
O          11.60000         9.82800        12.11800
H          11.30400        10.01600        11.18200
C          11.36800         9.18400        14.33100
O          11.28100        10.52800        14.82700
H          11.90100        10.99000        14.19300
C          10.26400         5.05800        13.17900
O           9.80500         4.07900        14.12200
H           9.59900         3.30400        13.52600
C          10.26200         6.53300        13.54600
O          10.83800         6.91300        14.80500
C          10.56700         8.25600        15.23000
O          11.30900         8.18100        16.45500
C          10.59300         8.25000        17.69700
C          10.34400         6.80200        18.08500
O           9.82600         5.88600        17.10900
H          10.17800         6.19400        16.22500
C           9.40900         6.80800        19.28300
O           8.83700         5.61100        19.83100
H           8.45900         5.15800        19.02400
C          11.99700        10.18700        18.41500
O          12.66800        10.89600        19.46700
H          13.57800        10.48500        19.52200
C          11.38600         8.86200        18.84000
O          10.45700         8.85700        19.93400
C          10.12700         7.54100        20.40400
O           9.38300         7.63400        21.62700

