# freq=raman b3lyp/6-31+g(d,p) geom=connectivity

450 6000.com

0 1
 O                 10.35700000    7.84900000   11.52000000
 C                 11.22700000    7.91700000   12.65900000
 C                 11.59600000    9.29100000   13.19300000
 O                 12.58800000    9.74400000   12.26100000
 H                 12.25200000    9.73700000   11.31900000
 C                 12.25900000    9.55400000   14.53500000
 O                 12.33300000   10.87900000   15.08200000
 H                 12.59300000   11.51000000   14.35200000
 C                 10.03100000    5.90100000   13.74300000
 O                 11.16200000    5.07300000   13.43600000
 H                 10.77700000    4.17800000   13.21200000
 C                 10.56700000    7.31600000   13.88900000
 O                 11.49400000    7.38400000   14.98300000
 C                 11.50700000    8.70400000   15.54600000
 O                 12.11600000    8.46300000   16.82200000
 C                 11.39900000    8.65800000   18.05000000
 C                 10.81500000    7.29000000   18.36300000
 O                 10.09500000    6.63200000   17.31100000
 H                 10.58300000    6.86400000   16.47000000
 C                 10.14200000    7.26800000   19.72600000
 O                  9.17900000    6.28400000   20.13000000
 H                  8.34000000    6.54700000   19.65100000
 C                 12.93500000   10.19700000   19.01100000
 O                 11.97700000   11.26500000   19.00500000
 H                 12.26900000   12.01400000   18.41100000
 C                 12.28000000    8.85100000   19.27400000
 O                 11.75700000    8.74900000   20.60600000
 C                 11.07100000    7.52400000   20.90200000
 O                 10.49000000    8.02400000   22.11500000
 H                 11.18801200    8.27516988   22.72433812
 H                 11.75224140    6.71752322   21.07637130
 H                  9.55089180    8.15916086   19.68962118
 H                 11.67834870    6.67210368   18.49616592
 H                 10.64084601    9.40870355   17.96908833
 H                 13.05354656    8.11497112   19.20481028
 H                 13.66164411   10.38544683   19.77348025
 H                 13.42679864   10.16517030   18.06125216
 H                 10.88272147    7.80112977   10.71817372
 H                  9.57991410    5.58228580   14.65942936
 H                  9.31727067    5.85846782   12.94695888
 H                  9.73579272    7.94226901   14.13755903
 H                 12.12388441    7.37458572   12.44386024
 H                 10.73721084    9.92420547   13.11280012
 H                 13.25920505    9.17869585   14.47469528
 H                 10.50729158    9.06470645   15.66999169

 1 2 1.0 38 1.0
 2 3 1.0 12 1.0 42 1.0
 3 4 1.0 6 1.0 43 1.0
 4 5 1.0
 5
 6 7 1.0 14 1.0 44 1.0
 7 8 1.0
 8
 9 10 1.0 12 1.0 39 1.0 40 1.0
 10 11 1.0
 11
 12 13 1.0 41 1.0
 13 14 1.0
 14 15 1.0 45 1.0
 15 16 1.0
 16 17 1.0 26 1.0 34 1.0
 17 18 1.0 20 1.0 33 1.0
 18 19 1.0
 19
 20 21 1.0 28 1.0 32 1.0
 21 22 1.0
 22
 23 24 1.0 26 1.0 36 1.0 37 1.0
 24 25 1.0
 25
 26 27 1.0 35 1.0
 27 28 1.0
 28 29 1.0 31 1.0
 29 30 1.0
 30
 31
 32
 33
 34
 35
 36
 37
 38
 39
 40
 41
 42
 43
 44
 45

