# freq=raman b3lyp/6-31+g(d,p) geom=connectivity

450 7000.com

0 1
O          10.86800         7.41100        11.29300
C          11.68400         7.68200        12.44200
C          11.88900         9.14000        12.81900
O          12.85800         9.78600        11.98100
H          12.52300         9.78900        11.03800
C          12.50600         9.35200        14.19200
O          12.47600        10.66900        14.76000
H          12.86300        11.22100        14.02100
C          10.83800         5.51100        13.23100
O          10.30100         4.64600        14.24200
H          10.09700         3.85800        13.66100
C          11.00900         6.97400        13.60600
O          11.85100         7.10500        14.76100
C          11.78300         8.47000        15.19700
O          12.51100         8.33800        16.42700
C          11.80100         8.32300        17.67400
C          11.32500         6.93700        18.07600
O          10.45200         6.34000        17.10500
H          10.89400         6.07700        16.24700
C          10.42700         7.05300        19.29700
O           9.77800         5.88000        19.81000
H           8.92500         5.76000        19.30300
C          12.98300        10.27300        18.43400
O          13.36900        10.99000        19.61600
H          14.11200        10.48900        20.05800
C          12.62100         8.85400        18.83900
O          11.84200         8.93500        20.04100
C          11.27500         7.66700        20.39900
O          10.64500         7.85700        21.67400

