# freq=raman b3lyp/6-31+g(d,p) geom=connectivity

450 8000.com

0 1
O          10.58500         7.70600        11.43900
C          11.46800         7.56600        12.56100
C          11.83800         8.94600        13.08100
O          12.85200         9.65000        12.34900
H          12.67800         9.47400        11.38100
C          12.03400         9.19300        14.56800
O          11.62500        10.49800        15.00300
H          11.74100        11.22100        14.32300
C          10.68800         5.32900        13.14700
O          10.30400         4.30500        14.07600
H          10.14600         3.44900        13.58500
C          10.84300         6.74500        13.67700
O          11.61900         6.70500        14.88400
C          11.58800         8.02800        15.43700
O          12.24400         7.92400        16.70800
C          11.42700         7.95500        17.88700
C          10.89300         6.63900        18.42800
O          10.05900         6.00300        17.44900
H          10.56200         6.03300        16.58400
C          10.06900         6.91600        19.67500
O           9.31700         5.72300        19.94100
H           8.59200         5.52900        19.28100
C          12.79000         9.97700        18.63400
O          11.98300        11.12200        18.32300
H          12.11900        11.35700        17.36100
C          12.27600         8.58900        18.97800
O          11.61700         8.75200        20.24200
C          11.04700         7.50900        20.67600
O          10.35300         7.88900        21.87400

