# freq=raman b3lyp/6-31+g(d,p) geom=connectivity

450 9000.com

0 1
 O                  9.94200000    8.07100000   11.50800000
 C                 10.85900000    7.99800000   12.60900000
 C                 11.32200000    9.39200000   12.99900000
 O                 12.05000000   10.16000000   12.02900000
 H                 11.78200000    9.99700000   11.08000000
 C                 12.08300000    9.39600000   14.31400000
 O                 12.10000000   10.66300000   14.98700000
 H                 12.56400000   11.40000000   14.49500000
 C                  9.94700000    5.77600000   13.26100000
 O                 10.95300000    4.75600000   13.16100000
 H                 10.52700000    3.89900000   12.87300000
 C                 10.18700000    7.20500000   13.71900000
 O                 11.11800000    7.15200000   14.81000000
 C                 11.45100000    8.45000000   15.32300000
 O                 12.07700000    8.16500000   16.58200000
 C                 11.38200000    8.35000000   17.82400000
 C                 10.80700000    7.00400000   18.23700000
 O                  9.88500000    6.43000000   17.30000000
 H                 10.29900000    6.40500000   16.39000000
 C                 10.33800000    7.27200000   19.65700000
 O                  9.70600000    6.10200000   20.19700000
 H                  8.94300000    5.79300000   19.62900000
 C                 12.82500000   10.31300000   18.45600000
 O                 13.57000000   11.02700000   19.45300000
 H                 14.36300000   10.58100000   19.86700000
 C                 12.39400000    8.90000000   18.81400000
 O                 11.70600000    8.97300000   20.07100000
 C                 11.42600000    7.68400000   20.63500000
 O                 10.69600000    7.94100000   21.84400000
 H                 11.31259244    8.09399402   22.56372675
 H                 12.25774192    7.01536563   20.71267526
 H                  9.61089562    8.05620211   19.62169741
 H                 11.62923591    6.32291223   18.30733888
 H                 10.58838254    9.05522099   17.69082836
 H                 13.24269084    8.25237567   18.88615661
 H                 11.94563642   10.87982217   18.23165134
 H                 13.42318605   10.26157694   17.57031997
 H                 10.43356621    8.12555387   10.68520808
 H                  9.50665300    5.84982263   12.28860875
 H                  9.19391507    5.38229939   13.91120222
 H                  9.27137187    7.66926356   14.02063634
 H                 11.71759064    7.44691189   12.28647247
 H                 10.42473557    9.94514329   13.18298110
 H                 13.09088445    9.08648496   14.13160106
 H                 10.51641086    8.90693330   15.57331000

 1 2 1.0 38 1.0
 2 3 1.0 12 1.0 42 1.0
 3 4 1.0 6 1.0 43 1.0
 4 5 1.0
 5
 6 7 1.0 14 1.0 44 1.0
 7 8 1.0
 8
 9 10 1.0 12 1.0 39 1.0 40 1.0
 10 11 1.0
 11
 12 13 1.0 41 1.0
 13 14 1.0
 14 15 1.0 45 1.0
 15 16 1.0
 16 17 1.0 26 1.0 34 1.0
 17 18 1.0 20 1.0 33 1.0
 18 19 1.0
 19
 20 21 1.0 28 1.0 32 1.0
 21 22 1.0
 22
 23 24 1.0 26 1.0 36 1.0 37 1.0
 24 25 1.0
 25
 26 27 1.0 35 1.0
 27 28 1.0
 28 29 1.0 31 1.0
 29 30 1.0
 30
 31
 32
 33
 34
 35
 36
 37
 38
 39
 40
 41
 42
 43
 44
 45

