# freq=raman b3lyp/6-31+g(d,p) geom=connectivity

450 9000.com

0 1
O           9.94200         8.07100        11.50800
C          10.85900         7.99800        12.60900
C          11.32200         9.39200        12.99900
O          12.05000        10.16000        12.02900
H          11.78200         9.99700        11.08000
C          12.08300         9.39600        14.31400
O          12.10000        10.66300        14.98700
H          12.56400        11.40000        14.49500
C           9.94700         5.77600        13.26100
O          10.95300         4.75600        13.16100
H          10.52700         3.89900        12.87300
C          10.18700         7.20500        13.71900
O          11.11800         7.15200        14.81000
C          11.45100         8.45000        15.32300
O          12.07700         8.16500        16.58200
C          11.38200         8.35000        17.82400
C          10.80700         7.00400        18.23700
O           9.88500         6.43000        17.30000
H          10.29900         6.40500        16.39000
C          10.33800         7.27200        19.65700
O           9.70600         6.10200        20.19700
H           8.94300         5.79300        19.62900
C          12.82500        10.31300        18.45600
O          13.57000        11.02700        19.45300
H          14.36300        10.58100        19.86700
C          12.39400         8.90000        18.81400
O          11.70600         8.97300        20.07100
C          11.42600         7.68400        20.63500
O          10.69600         7.94100        21.84400

