# freq=raman b3lyp/6-31+g(2d,p) geom=connectivity

423 7836/7836.com

0 1
O           7.65800         7.68900        12.34000
C           8.34000         8.07700        13.54100
C           7.70800         9.34600        14.09100
O           7.86400        10.42500        13.15800
H           7.82400        10.11500        12.20800
C           8.12600         9.70700        15.50700
O           7.19100        10.60300        16.12400
H           7.67300        10.78800        16.98000
C           8.72500         5.72900        14.30700
O           7.93700         5.10700        13.28100
H           8.06600         4.12800        13.43700
C           8.10700         7.07200        14.65800
O           8.78400         7.41200        15.87700
C           8.07300         8.51800        16.45200
O           8.79200         8.79900        17.66200
C           8.09900         8.54600        18.89300
C           8.56800         7.19200        19.39900
O           8.37000         6.08800        18.50300
H           8.41800         6.42900        17.56400
C           8.05200         6.83800        20.78500
O           8.75200         5.69800        21.30600
H           8.38800         5.45800        22.20600
C           7.87400        10.95300        19.60100
O           8.24800        11.62600        18.39100
H           7.92300        12.55800        18.55100
C           8.36900         9.56700        19.98500
O           7.72800         9.16500        21.20500
C           8.31200         7.97600        21.75800
O           7.59700         7.78300        22.98700

