# freq=raman b3lyp/6-31+g(2d,p) geom=connectivity

423 7836/7836.com

0 1
 O                  7.65800000    7.68900000   12.34000000
 C                  8.34000000    8.07700000   13.54100000
 C                  7.70800000    9.34600000   14.09100000
 O                  7.86400000   10.42500000   13.15800000
 H                  7.82400000   10.11500000   12.20800000
 C                  8.12600000    9.70700000   15.50700000
 O                  7.19100000   10.60300000   16.12400000
 H                  7.67300000   10.78800000   16.98000000
 C                  8.72500000    5.72900000   14.30700000
 O                  7.93700000    5.10700000   13.28100000
 H                  8.06600000    4.12800000   13.43700000
 C                  8.10700000    7.07200000   14.65800000
 O                  8.78400000    7.41200000   15.87700000
 C                  8.07300000    8.51800000   16.45200000
 O                  8.79200000    8.79900000   17.66200000
 C                  8.09900000    8.54600000   18.89300000
 C                  8.56800000    7.19200000   19.39900000
 O                  8.37000000    6.08800000   18.50300000
 H                  8.41800000    6.42900000   17.56400000
 C                  8.05200000    6.83800000   20.78500000
 O                  8.75200000    5.69800000   21.30600000
 H                  8.38800000    5.45800000   22.20600000
 C                  7.87400000   10.95300000   19.60100000
 O                  8.24800000   11.62600000   18.39100000
 H                  7.92300000   12.55800000   18.55100000
 C                  8.36900000    9.56700000   19.98500000
 O                  7.72800000    9.16500000   21.20500000
 C                  8.31200000    7.97600000   21.75800000
 O                  7.59700000    7.78300000   22.98700000
 H                  8.22227096    7.66999081   23.70662848
 H                  8.30215292    7.47017716   11.66266435
 H                  9.72383515    5.87571276   13.95245282
 H                  8.74098372    5.10385812   15.17524084
 H                  7.05859135    6.95798129   14.83893931
 H                  9.38576428    8.21652294   13.36264524
 H                  6.65708585    9.15091040   14.14018835
 H                  9.10587329   10.13682346   15.50735158
 H                  7.06039703    8.24705001   16.66675875
 H                  8.15064626   11.60366033   20.40412389
 H                  6.80534832   10.89947819   19.59663958
 H                  9.42455126    9.61576591   20.15332533
 H                  7.04693688    8.50529870   18.70219486
 H                  9.62873939    7.28440557   19.50479776
 H                  7.00318697    6.63087167   20.74040095
 H                  9.35930281    8.10589184   21.93459256

 1 2 1.0 31 1.0
 2 3 1.0 12 1.0 35 1.0
 3 4 1.0 6 1.0 36 1.0
 4 5 1.0
 5
 6 7 1.0 14 1.0 37 1.0
 7 8 1.0
 8
 9 10 1.0 12 1.0 32 1.0 33 1.0
 10 11 1.0
 11
 12 13 1.0 34 1.0
 13 14 1.0
 14 15 1.0 38 1.0
 15 16 1.0
 16 17 1.0 26 1.0 42 1.0
 17 18 1.0 20 1.0 43 1.0
 18 19 1.0
 19
 20 21 1.0 28 1.0 44 1.0
 21 22 1.0
 22
 23 24 1.0 26 1.0 39 1.0 40 1.0
 24 25 1.0
 25
 26 27 1.0 41 1.0
 27 28 1.0
 28 29 1.0 45 1.0
 29 30 1.0
 30
 31
 32
 33
 34
 35
 36
 37
 38
 39
 40
 41
 42
 43
 44
 45

