# freq=raman b3lyp/6-31+g(2d,p) geom=connectivity

300 6023/6023.com

0 1
O           7.55700         7.38400        12.25500
C           8.10500         7.88900        13.48100
C           7.60200         9.24400        13.95200
O           7.91200        10.21600        12.94400
H           7.54800         9.88700        12.07300
C           8.18900         9.62000        15.30200
O           7.44500        10.74600        15.79100
H           7.71900        10.90300        16.74000
C           8.57500         5.51400        14.08500
O           8.33600         4.67900        12.94300
H           8.50700         3.76100        13.30100
C           7.85100         6.78600        14.49500
O           8.33900         7.17100        15.78900
C           7.89300         8.45900        16.23800
O           8.60400         8.81000        17.43400
C           7.96500         8.45200        18.66800
C           8.53300         7.17700        19.26900
O           8.54500         6.14600        18.27000
H           8.55600         6.54700        17.35400
C           8.00900         6.68600        20.60900
O           8.85000         5.61700        21.06800
H           8.63000         5.46700        22.03200
C           7.74800        10.94500        19.43100
O           8.23600        11.48700        18.19500
H           8.18400        12.48300        18.26700
C           8.27000         9.54000        19.68400
O           7.70500         9.03900        20.90400
C           8.18500         7.85700        21.56200
O           7.48600         7.65100        22.79800

