# freq=raman b3lyp/6-31+g(2d,p) geom=connectivity

300 6023/6023.com

0 1
 O                  7.55700000    7.38400000   12.25500000
 C                  8.10500000    7.88900000   13.48100000
 C                  7.60200000    9.24400000   13.95200000
 O                  7.91200000   10.21600000   12.94400000
 H                  7.54800000    9.88700000   12.07300000
 C                  8.18900000    9.62000000   15.30200000
 O                  7.44500000   10.74600000   15.79100000
 H                  7.71900000   10.90300000   16.74000000
 C                  8.57500000    5.51400000   14.08500000
 O                  8.33600000    4.67900000   12.94300000
 H                  8.50700000    3.76100000   13.30100000
 C                  7.85100000    6.78600000   14.49500000
 O                  8.33900000    7.17100000   15.78900000
 C                  7.89300000    8.45900000   16.23800000
 O                  8.60400000    8.81000000   17.43400000
 C                  7.96500000    8.45200000   18.66800000
 C                  8.53300000    7.17700000   19.26900000
 O                  8.54500000    6.14600000   18.27000000
 H                  8.55600000    6.54700000   17.35400000
 C                  8.00900000    6.68600000   20.60900000
 O                  8.85000000    5.61700000   21.06800000
 H                  8.63000000    5.46700000   22.03200000
 C                  7.74800000   10.94500000   19.43100000
 O                  8.23600000   11.48700000   18.19500000
 H                  8.18400000   12.48300000   18.26700000
 C                  8.27000000    9.54000000   19.68400000
 O                  7.70500000    9.03900000   20.90400000
 C                  8.18500000    7.85700000   21.56200000
 O                  7.48600000    7.65100000   22.79800000
 H                  8.12053613    7.53256837   23.50858979
 H                  8.05680190   11.58022677   20.23475888
 H                  6.67878209   10.91798628   19.40028638
 H                  9.33181833    9.59658285   19.80333239
 H                  6.90821649    8.35962235   18.52808935
 H                  9.56379523    7.39951438   19.45024167
 H                  6.98499533    6.38255278   20.54392917
 H                  9.22732971    7.97767293   21.77149180
 H                  8.27124569    7.13969653   11.66189890
 H                  9.59754980    5.67420501   14.35634161
 H                  8.30465041    6.18678169   13.29812269
 H                  6.80018608    6.59325499   14.55449339
 H                  9.16384673    7.97046193   13.35020418
 H                  6.53799196    9.19130686   14.05205157
 H                  9.23680941    9.82771527   15.23995320
 H                  6.84345138    8.42307184   16.44307768

 1 2 1.0 38 1.0
 2 3 1.0 12 1.0 42 1.0
 3 4 1.0 6 1.0 43 1.0
 4 5 1.0
 5
 6 7 1.0 14 1.0 44 1.0
 7 8 1.0
 8
 9 10 1.0 12 1.0 39 1.0 40 1.0
 10 11 1.0
 11
 12 13 1.0 41 1.0
 13 14 1.0
 14 15 1.0 45 1.0
 15 16 1.0
 16 17 1.0 26 1.0 34 1.0
 17 18 1.0 20 1.0 35 1.0
 18 19 1.0
 19
 20 21 1.0 28 1.0 36 1.0
 21 22 1.0
 22
 23 24 1.0 26 1.0 31 1.0 32 1.0
 24 25 1.0
 25
 26 27 1.0 33 1.0
 27 28 1.0
 28 29 1.0 37 1.0
 29 30 1.0
 30
 31
 32
 33
 34
 35
 36
 37
 38
 39
 40
 41
 42
 43
 44
 45

