# freq=raman b3lyp/6-31+g(d,p) geom=connectivity

310 7000.com

0 1
 O                  7.65400000    7.58400000   22.68800000
 C                  8.46400000    7.78600000   23.85500000
 C                  7.86900000    9.06000000   24.43000000
 O                  7.81000000   10.11400000   23.45800000
 H                  7.89100000    9.72600000   22.54000000
 C                  8.34500000    9.43300000   25.82500000
 O                  7.64700000   10.62800000   26.20500000
 H                  7.87000000   10.81400000   27.16200000
 C                  8.52200000    5.30300000   24.54200000
 O                  7.85400000    4.68700000   23.43200000
 H                  8.04300000    3.70700000   23.48600000
 C                  8.06000000    6.71700000   24.85700000
 O                  8.73300000    7.05600000   26.07800000
 C                  8.18300000    8.21500000   26.72000000
 O                  8.93700000    8.54000000   27.89700000
 C                  8.37500000    8.26500000   29.18800000
 C                  8.85800000    6.93600000   29.74600000
 O                  8.47100000    5.85900000   28.88000000
 H                  9.04700000    5.90800000   28.06400000
 C                  8.16300000    6.62200000   31.06100000
 O                  8.63600000    5.33700000   31.49000000
 H                  8.31600000    5.17900000   32.42400000
 C                  7.83100000   10.65100000   29.84400000
 O                  8.02400000   11.42100000   28.64800000
 H                  7.86700000   12.40100000   28.77300000
 C                  8.57000000    9.37400000   30.20900000
 O                  8.16800000    8.98500000   31.53100000
 C                  8.66400000    7.71800000   31.98800000
 O                  7.78900000    7.61500000   33.12100000
 H                  8.22043875    7.45180473   21.92427783
 H                  8.31135281    7.54207811   33.92314084
 H                  8.00018211   11.32719530   30.65581114
 H                  6.79078698   10.40112117   29.86443126
 H                  9.61487597    9.60217297   30.24173063
 H                  7.31918917    8.16878373   29.04341122
 H                  9.91984831    6.94743536   29.87732935
 H                  7.09795693    6.64246652   30.96018145
 H                  9.70749324    7.69112264   32.22315840
 H                  8.36543649    4.69591837   25.40908694
 H                  9.57083830    5.32972048   24.33194233
 H                  7.00051712    6.73343914   25.00574736
 H                  7.15255277    8.06004545   26.96303825
 H                  9.38822032    9.66435570   25.76962946
 H                  6.84061364    8.80745773   24.58344020
 H                  9.51489881    7.84031631   23.66119228

 1 2 1.0 30 1.0
 2 3 1.0 12 1.0 45 1.0
 3 4 1.0 6 1.0 44 1.0
 4 5 1.0
 5
 6 7 1.0 14 1.0 43 1.0
 7 8 1.0
 8
 9 10 1.0 12 1.0 39 1.0 40 1.0
 10 11 1.0
 11
 12 13 1.0 41 1.0
 13 14 1.0
 14 15 1.0 42 1.0
 15 16 1.0
 16 17 1.0 26 1.0 35 1.0
 17 18 1.0 20 1.0 36 1.0
 18 19 1.0
 19
 20 21 1.0 28 1.0 37 1.0
 21 22 1.0
 22
 23 24 1.0 26 1.0 32 1.0 33 1.0
 24 25 1.0
 25
 26 27 1.0 34 1.0
 27 28 1.0
 28 29 1.0 38 1.0
 29 31 1.0
 30
 31
 32
 33
 34
 35
 36
 37
 38
 39
 40
 41
 42
 43
 44
 45

