# freq=raman b3lyp/6-31+g(d,p) geom=connectivity

350 7000.com

0 1
 O                  7.75300000    7.54700000   22.76000000
 C                  8.45500000    7.77000000   23.99200000
 C                  8.02500000    9.16100000   24.43100000
 O                  7.91900000   10.28200000   23.54200000
 H                  7.57800000    9.98100000   22.65200000
 C                  8.48500000    9.54500000   25.82800000
 O                  8.00900000   10.82300000   26.27500000
 H                  8.30700000   10.85500000   27.23000000
 C                  8.40400000    5.35200000   24.64300000
 O                  7.70600000    4.64400000   23.60900000
 H                  7.87800000    3.71200000   23.92800000
 C                  8.05700000    6.77100000   25.06500000
 O                  8.57300000    7.17000000   26.34400000
 C                  8.13300000    8.44900000   26.82100000
 O                  8.93600000    8.55400000   28.00500000
 C                  8.25300000    8.25000000   29.23000000
 C                  8.95900000    7.01100000   29.75700000
 O                  8.70300000    5.89400000   28.89400000
 H                  9.16500000    6.16700000   28.05000000
 C                  8.45100000    6.56100000   31.11700000
 O                  9.14900000    5.48300000   31.75600000
 H                  8.70700000    5.15900000   32.59200000
 C                  8.26600000   10.79600000   29.98500000
 O                  8.75500000   11.43400000   28.79600000
 H                  8.81200000   12.41100000   28.99900000
 C                  8.52200000    9.32500000   30.27000000
 O                  7.85900000    8.97200000   31.49300000
 C                  8.48800000    7.79000000   32.01000000
 O                  7.77100000    7.56700000   33.23300000
 H                  8.39516310    7.43616004   33.95056626
 H                  9.50771100    8.01543822   32.24295297
 H                  7.42877210    6.26597614   31.00337322
 H                 10.01239995    7.19159143   29.80833506
 H                  7.20676710    8.08307312   29.08022636
 H                  9.56970893    9.25812265   30.47672061
 H                  8.66217045   11.34413529   30.81415420
 H                  7.20463820   10.93143555   29.99326631
 H                  8.38596804    7.41844399   22.04977129
 H                  8.33159089    4.74879370   25.52379458
 H                  9.43487281    5.36569757   24.35661980
 H                  6.99054914    6.81251823   25.14154281
 H                  9.51212449    7.74161733   23.82895943
 H                  6.98628881    8.97645724   24.60967019
 H                  9.55280115    9.60606936   25.79683516
 H                  7.08864211    8.44340168   27.05377725

 1 2 1.0 38 1.0
 2 3 1.0 12 1.0 42 1.0
 3 4 1.0 6 1.0 43 1.0
 4 5 1.0
 5
 6 7 1.0 14 1.0 44 1.0
 7 8 1.0
 8
 9 10 1.0 12 1.0 39 1.0 40 1.0
 10 11 1.0
 11
 12 13 1.0 41 1.0
 13 14 1.0
 14 15 1.0 45 1.0
 15 16 1.0
 16 17 1.0 26 1.0 34 1.0
 17 18 1.0 20 1.0 33 1.0
 18 19 1.0
 19
 20 21 1.0 28 1.0 32 1.0
 21 22 1.0
 22
 23 24 1.0 26 1.0 36 1.0 37 1.0
 24 25 1.0
 25
 26 27 1.0 35 1.0
 27 28 1.0
 28 29 1.0 31 1.0
 29 30 1.0
 30
 31
 32
 33
 34
 35
 36
 37
 38
 39
 40
 41
 42
 43
 44
 45

