# freq=raman b3lyp/6-31+g(d,p) geom=connectivity

310 6000.com

0 1
 O                  7.63300000    7.71200000   22.83600000
 C                  8.29500000    7.93600000   24.09000000
 C                  7.97400000    9.29800000   24.68300000
 O                  8.34500000   10.24200000   23.66800000
 H                  8.25300000    9.68800000   22.84100000
 C                  8.59700000    9.69400000   26.01200000
 O                  8.21200000   10.91700000   26.65600000
 H                  8.62600000   11.03800000   27.55800000
 C                  8.49400000    5.57100000   24.83400000
 O                  8.17800000    4.88100000   23.61600000
 H                  8.35900000    3.91600000   23.80500000
 C                  7.99600000    6.95600000   25.21200000
 O                  8.71700000    7.25000000   26.41700000
 C                  8.29300000    8.52100000   26.93000000
 O                  9.04700000    8.73500000   28.13100000
 C                  8.50300000    8.36700000   29.40700000
 C                  8.89000000    6.99800000   29.94400000
 O                  8.72300000    6.05600000   28.87500000
 H                  9.07400000    6.54300000   28.07500000
 C                  8.26300000    6.59800000   31.26900000
 O                  8.92400000    5.44200000   31.80300000
 H                  8.43800000    5.33500000   32.67000000
 C                  8.37300000   10.78300000   30.41200000
 O                  8.89300000   11.37200000   29.21100000
 H                  8.71200000   12.35500000   29.24300000
 C                  8.81700000    9.33400000   30.53700000
 O                  8.08500000    9.03400000   31.73300000
 C                  8.49300000    7.75200000   32.23200000
 O                  7.66700000    7.50400000   33.37900000
 H                  8.22294657    7.33860277   34.14396220
 H                  9.52183673    7.78442966   32.52413577
 H                  7.21622055    6.41154029   31.14906016
 H                  9.94276484    7.04507867   30.12939090
 H                  7.43924665    8.36230805   29.29164489
 H                  9.86573014    9.30267285   30.74696118
 H                  8.72856088   11.33443980   31.25721631
 H                  7.30398495   10.82308031   30.38963077
 H                  8.18667899    4.92197342   25.62723281
 H                  9.56203710    5.62214836   24.87375673
 H                  6.94457598    6.92846657   25.40859461
 H                  8.28855820    7.58867719   22.14561248
 H                  9.34841596    7.90277493   23.90530862
 H                  6.91200732    9.35171290   24.80210695
 H                  9.65697021    9.72948642   25.87021185
 H                  7.24736010    8.49418064   27.15542828

 1 2 1.0 41 1.0
 2 3 1.0 12 1.0 42 1.0
 3 4 1.0 6 1.0 43 1.0
 4 5 1.0
 5
 6 7 1.0 14 1.0 44 1.0
 7 8 1.0
 8
 9 10 1.0 12 1.0 38 1.0 39 1.0
 10 11 1.0
 11
 12 13 1.0 40 1.0
 13 14 1.0
 14 15 1.0 45 1.0
 15 16 1.0
 16 17 1.0 26 1.0 34 1.0
 17 18 1.0 20 1.0 33 1.0
 18 19 1.0
 19
 20 21 1.0 28 1.0 32 1.0
 21 22 1.0
 22
 23 24 1.0 26 1.0 36 1.0 37 1.0
 24 25 1.0
 25
 26 27 1.0 35 1.0
 27 28 1.0
 28 29 1.0 31 1.0
 29 30 1.0
 30
 31
 32
 33
 34
 35
 36
 37
 38
 39
 40
 41
 42
 43
 44
 45

