# freq=raman b3lyp/6-31+g(2d,p) geom=connectivity

483 9300/9300.com

0 1
O           7.62900         7.69700        12.36400
C           8.19000         7.99000        13.65200
C           7.77700         9.38200        14.10000
O           8.32900        10.27600        13.12100
H           7.79700        10.13400        12.28700
C           8.20800         9.70400        15.52200
O           7.68700        10.95800        15.98600
H           7.99400        11.08300        16.92900
C           8.08700         5.57300        14.37500
O           7.88700         4.88000        13.13400
H           8.13800         3.92300        13.28000
C           7.67100         7.00200        14.68400
O           8.15800         7.33300        15.99300
C           7.72400         8.61600        16.46700
O           8.53300         8.82100        17.63400
C           7.93400         8.43300        18.87900
C           8.50800         7.07400        19.24500
O           8.21100         6.02300        18.31400
H           8.32900         6.40800        17.39800
C           8.06500         6.69900        20.65000
O           8.68800         5.47400        21.06500
H           8.27400         5.12900        21.90700
C           7.80500        10.97900        19.54200
O           8.62400        11.68200        18.59700
H           8.40200        12.64100        18.77500
C           8.23800         9.55700        19.85700
O           7.72700         9.08700        21.11300
C           8.34900         7.87700        21.56800
O           7.57800         7.66200        22.76000

