# freq=raman b3lyp/6-31+g(2d,p) geom=connectivity

400 7126/7126.com

0 1
 O                  9.68700000    7.84300000   12.17400000
 C                 10.24300000    8.20600000   13.44600000
 C                  9.95400000    9.64200000   13.85500000
 O                 10.15700000   10.54500000   12.75900000
 H                 10.10400000   10.11100000   11.86000000
 C                 10.58500000    9.97000000   15.19800000
 O                 10.05300000   11.23700000   15.61200000
 H                 10.59000000   11.57200000   16.38600000
 C                 10.00500000    5.76800000   14.28600000
 O                  9.55300000    5.06100000   13.12200000
 H                  9.52300000    4.06800000   13.24200000
 C                  9.71200000    7.24500000   14.49700000
 O                 10.20100000    7.58700000   15.80200000
 C                 10.13600000    8.95300000   16.23500000
 O                 10.80100000    8.73600000   17.48800000
 C                 10.06500000    8.74700000   18.72000000
 C                 10.14600000    7.32000000   19.23600000
 O                  9.73300000    6.35800000   18.25500000
 H                  9.79500000    6.79300000   17.35700000
 C                  9.43900000    7.09400000   20.56300000
 O                  9.59700000    5.74100000   21.01200000
 H                  9.01300000    5.64100000   21.81700000
 C                 10.61600000   11.14000000   19.51300000
 O                 11.29500000   11.79400000   18.43200000
 H                 11.19700000   12.77300000   18.61200000
 C                 10.63500000    9.64800000   19.80400000
 O                 10.00800000    9.48400000   21.08400000
 C                  9.92500000    8.13300000   21.56100000
 O                  9.06400000    8.13300000   22.70900000
 H                  9.59607734    8.13300000   23.50805801
 H                 10.39738957    7.66580213   11.55307523
 H                  9.60639996    5.25116363   15.13387863
 H                 11.06878021    5.65765861   14.31911246
 H                  8.64799099    7.35650048   14.51577434
 H                 11.30466852    8.08483772   13.39050536
 H                  8.90009967    9.67164820   14.03752419
 H                 11.65204597   10.00431399   15.12633803
 H                  9.11204501    9.17115206   16.45596571
 H                 10.96574231   11.61486569   20.40579499
 H                  9.58398040   11.40299018   19.40969608
 H                 11.66125145    9.36962743   19.92323373
 H                  9.04435900    9.00679716   18.53106250
 H                 11.18333071    7.13118470   19.41819161
 H                  8.39388126    7.26118432   20.40591335
 H                 10.90248546    7.84111690   21.88384120

 1 2 1.0 31 1.0
 2 3 1.0 12 1.0 35 1.0
 3 4 1.0 6 1.0 36 1.0
 4 5 1.0
 5
 6 7 1.0 14 1.0 37 1.0
 7 8 1.0
 8
 9 10 1.0 12 1.0 32 1.0 33 1.0
 10 11 1.0
 11
 12 13 1.0 34 1.0
 13 14 1.0
 14 15 1.0 38 1.0
 15 16 1.0
 16 17 1.0 26 1.0 42 1.0
 17 18 1.0 20 1.0 43 1.0
 18 19 1.0
 19
 20 21 1.0 28 1.0 44 1.0
 21 22 1.0
 22
 23 24 1.0 26 1.0 39 1.0 40 1.0
 24 25 1.0
 25
 26 27 1.0 41 1.0
 27 28 1.0
 28 29 1.0 45 1.0
 29 30 1.0
 30
 31
 32
 33
 34
 35
 36
 37
 38
 39
 40
 41
 42
 43
 44
 45

