# freq=raman b3lyp/6-31+g(2d,p) geom=connectivity

290 9416/9416.com

0 1
 O                  8.04100000    7.62700000   12.12400000
 C                  8.59700000    8.08000000   13.36700000
 C                  8.06600000    9.40300000   13.89200000
 O                  8.35300000   10.40900000   12.90900000
 H                  8.06000000    9.90900000   12.09400000
 C                  8.59400000    9.63600000   15.29800000
 O                  7.99600000   10.78600000   15.91400000
 H                  8.51100000   10.84500000   16.76900000
 C                  8.61400000    5.61300000   14.16300000
 O                  8.34700000    4.80900000   13.00400000
 H                  8.07400000    3.89300000   13.29700000
 C                  8.19600000    7.05200000   14.41200000
 O                  8.93500000    7.34400000   15.60700000
 C                  8.35100000    8.48200000   16.25800000
 O                  9.14400000    8.66300000   17.44000000
 C                  8.60200000    8.31300000   18.72200000
 C                  9.17000000    7.01700000   19.27600000
 O                  9.06300000    5.92000000   18.35800000
 H                  9.34400000    6.27700000   17.46800000
 C                  8.59500000    6.61000000   20.62300000
 O                  9.15900000    5.40100000   21.15400000
 H                  8.94400000    5.38900000   22.13100000
 C                  8.12800000   10.72200000   19.47700000
 O                  8.65100000   11.57300000   18.44700000
 H                  8.34500000   12.52100000   18.52900000
 C                  8.85100000    9.41200000   19.74300000
 O                  8.28600000    9.05300000   21.01300000
 C                  8.72500000    7.80000000   21.55900000
 O                  7.91800000    7.67700000   22.73900000
 H                  8.48639662    7.59679200   23.50847512
 H                  9.74984020    7.89364238   21.85197385
 H                  7.54958946    6.43222020   20.48013243
 H                 10.21536832    7.18595944   19.42948548
 H                  7.54434542    8.19281478   18.61326955
 H                  9.90151040    9.58720717   19.84610357
 H                  8.12042437   11.28119053   20.38922177
 H                  7.11456610   10.48952728   19.22439720
 H                  8.75142285    7.40591321   11.51735347
 H                  9.67940760    5.61223641   14.26202552
 H                  8.20811159    5.05990579   14.98412203
 H                  7.14486245    7.10615279   14.60455473
 H                  9.66356604    8.12213688   13.29242538
 H                  7.00156193    9.31894594   13.96132906
 H                  9.64925928    9.80101134   15.23397568
 H                  7.31324985    8.33921945   16.47614751

 1 2 1.0 38 1.0
 2 3 1.0 12 1.0 42 1.0
 3 4 1.0 6 1.0 43 1.0
 4 5 1.0
 5
 6 7 1.0 14 1.0 44 1.0
 7 8 1.0
 8
 9 10 1.0 12 1.0 39 1.0 40 1.0
 10 11 1.0
 11
 12 13 1.0 41 1.0
 13 14 1.0
 14 15 1.0 45 1.0
 15 16 1.0
 16 17 1.0 26 1.0 34 1.0
 17 18 1.0 20 1.0 33 1.0
 18 19 1.0
 19
 20 21 1.0 28 1.0 32 1.0
 21 22 1.0
 22
 23 24 1.0 26 1.0 36 1.0 37 1.0
 24 25 1.0
 25
 26 27 1.0 35 1.0
 27 28 1.0
 28 29 1.0 31 1.0
 29 30 1.0
 30
 31
 32
 33
 34
 35
 36
 37
 38
 39
 40
 41
 42
 43
 44
 45

