# freq=raman b3lyp/6-31+g(2df,p) geom=connectivity

290 6000.com

0 1
 O                  7.68600000    7.60200000   12.26700000
 C                  8.23800000    8.10900000   13.49100000
 C                  7.63700000    9.42100000   13.96800000
 O                  7.98300000   10.37300000   12.95100000
 H                  7.49800000   10.06100000   12.13400000
 C                  8.09800000    9.85600000   15.34900000
 O                  7.44000000   10.98300000   15.94500000
 H                  7.88800000   11.19000000   16.81500000
 C                  8.68700000    5.75400000   14.34400000
 O                  8.29400000    5.08200000   13.13800000
 H                  8.35600000    4.08600000   13.18800000
 C                  8.09300000    7.12200000   14.63700000
 O                  8.67300000    7.46300000   15.90500000
 C                  8.03800000    8.68300000   16.31500000
 O                  8.85600000    8.95800000   17.46100000
 C                  8.44800000    8.55000000   18.77500000
 C                  9.02100000    7.23800000   19.28500000
 O                  8.90600000    6.20200000   18.29800000
 H                  9.09100000    6.47200000   17.35300000
 C                  8.25800000    6.89100000   20.55300000
 O                  8.67600000    5.64800000   21.13400000
 H                  8.03700000    5.36000000   21.84800000
 C                  7.96100000   10.97200000   19.50100000
 O                  8.56200000   11.69700000   18.41700000
 H                  8.28400000   12.65500000   18.48300000
 C                  8.63300000    9.64500000   19.81200000
 O                  8.09500000    9.31600000   21.10100000
 C                  8.47900000    8.01100000   21.55700000
 O                  7.58700000    7.80300000   22.66200000
 H                  8.39840539    7.35574621   11.67249380
 H                  8.09719289    7.65256792   23.46117045
 H                  9.49436161    8.01685336   21.89450042
 H                  9.28353607    8.27041510   13.33068938
 H                  6.57215468    9.31770732   13.98630465
 H                  7.04400458    6.98488906   14.79734087
 H                  8.44159054    5.11319023   15.16499758
 H                  7.02836238    8.49564562   16.61571617
 H                  9.12961885   10.12331860   15.25306606
 H                  7.39180900    8.39254201   18.70741635
 H                 10.05413129    7.37779087   19.52582826
 H                  7.21451152    6.83205482   20.32374629
 H                  9.68257866    9.82088712   19.92312314
 H                  7.99534442   11.58349016   20.37838261
 H                  6.93630626   10.78430986   19.25671503
 H                  9.75120762    5.86269441   14.32059765

 1 2 1.0 30 1.0
 2 3 1.0 12 1.0 33 1.0
 3 4 1.0 6 1.0 34 1.0
 4 5 1.0
 5
 6 7 1.0 14 1.0 38 1.0
 7 8 1.0
 8
 9 10 1.0 12 1.0 36 1.0 45 1.0
 10 11 1.0
 11
 12 13 1.0 35 1.0
 13 14 1.0
 14 15 1.0 37 1.0
 15 16 1.0
 16 17 1.0 26 1.0 39 1.0
 17 18 1.0 20 1.0 40 1.0
 18 19 1.0
 19
 20 21 1.0 28 1.0 41 1.0
 21 22 1.0
 22
 23 24 1.0 26 1.0 43 1.0 44 1.0
 24 25 1.0
 25
 26 27 1.0 42 1.0
 27 28 1.0
 28 29 1.0 32 1.0
 29 31 1.0
 30
 31
 32
 33
 34
 35
 36
 37
 38
 39
 40
 41
 42
 43
 44
 45

