# freq=raman b3lyp/6-31+g(2d,p) geom=connectivity

473 8748/8748.com

0 1
 O                  7.69200000    7.72400000   12.05100000
 C                  8.31500000    7.87800000   13.33400000
 C                  7.91800000    9.24400000   13.87000000
 O                  8.33100000   10.31100000   13.00400000
 H                  8.33100000    9.87100000   12.10600000
 C                  8.45900000    9.59300000   15.24700000
 O                  7.90900000   10.82300000   15.74000000
 H                  8.16700000   10.93700000   16.69900000
 C                  8.26800000    5.39000000   14.01900000
 O                  7.78100000    4.78500000   12.81300000
 H                  7.88900000    3.79800000   12.92700000
 C                  7.92600000    6.83000000   14.36500000
 O                  8.49000000    7.17400000   15.63900000
 C                  8.08600000    8.44400000   16.17000000
 O                  8.81700000    8.64000000   17.39000000
 C                  8.19300000    8.29700000   18.63600000
 C                  8.66800000    6.94200000   19.13400000
 O                  8.31100000    5.93400000   18.17700000
 H                  8.58900000    6.22000000   17.26000000
 C                  8.01800000    6.53500000   20.44700000
 O                  8.63800000    5.37800000   21.02800000
 H                  8.11600000    5.14100000   21.84700000
 C                  8.04300000   10.71500000   19.43200000
 O                  8.42800000   11.58000000   18.35300000
 H                  8.25600000   12.56100000   18.43600000
 C                  8.44200000    9.28700000   19.76300000
 O                  7.65800000    8.92600000   20.91000000
 C                  8.13500000    7.68100000   21.43800000
 O                  7.27000000    7.48900000   22.56700000
 H                  7.79936046    7.35473182   23.35652490
 H                  9.14860364    7.78428643   21.76486322
 H                  6.98278905    6.32671130   20.27421657
 H                  9.73119145    6.95918625   19.25328362
 H                  7.13718571    8.23983313   18.47202398
 H                  9.47898856    9.26483214   20.02579898
 H                  8.29752109   11.26739218   20.31233056
 H                  6.97543856   10.67937653   19.36920237
 H                  7.92653101    4.78407041   14.83211024
 H                  9.33542164    5.31998037   13.99433639
 H                  8.36831963    7.64280364   11.37453942
 H                  6.86228267    6.87882004   14.46998594
 H                  9.37690332    7.85430093   13.20477272
 H                  6.84979585    9.26772628   13.92724477
 H                  9.52463165    9.67626854   15.19805580
 H                  7.03360487    8.44867810   16.36324232

 1 2 1.0 40 1.0
 2 3 1.0 12 1.0 42 1.0
 3 4 1.0 6 1.0 43 1.0
 4 5 1.0
 5
 6 7 1.0 14 1.0 44 1.0
 7 8 1.0
 8
 9 10 1.0 12 1.0 38 1.0 39 1.0
 10 11 1.0
 11
 12 13 1.0 41 1.0
 13 14 1.0
 14 15 1.0 45 1.0
 15 16 1.0
 16 17 1.0 26 1.0 34 1.0
 17 18 1.0 20 1.0 33 1.0
 18 19 1.0
 19
 20 21 1.0 28 1.0 32 1.0
 21 22 1.0
 22
 23 24 1.0 26 1.0 36 1.0 37 1.0
 24 25 1.0
 25
 26 27 1.0 35 1.0
 27 28 1.0
 28 29 1.0 31 1.0
 29 30 1.0
 30
 31
 32
 33
 34
 35
 36
 37
 38
 39
 40
 41
 42
 43
 44
 45

