# freq=raman b3lyp/6-31+g(2d,p) geom=connectivity

473 9756/9756.com

0 1
 O                  7.64300000    7.45900000   12.29800000
 C                  8.07100000    7.88800000   13.59800000
 C                  7.40200000    9.18400000   14.02600000
 O                  7.40000000   10.18100000   12.99400000
 H                  7.32200000    9.69000000   12.12600000
 C                  7.99800000    9.59900000   15.36100000
 O                  7.49600000   10.80800000   15.94900000
 H                  7.85100000   10.88800000   16.88100000
 C                  8.46600000    5.55200000   14.34400000
 O                  8.10100000    4.71100000   13.24000000
 H                  8.00800000    3.74600000   13.48500000
 C                  7.83300000    6.88400000   14.71400000
 O                  8.42200000    7.29700000   15.95600000
 C                  7.92700000    8.54800000   16.45600000
 O                  8.71800000    8.80400000   17.62600000
 C                  8.06400000    8.56200000   18.88000000
 C                  8.51600000    7.19600000   19.36900000
 O                  8.18200000    6.07900000   18.53200000
 H                  8.52900000    6.34400000   17.63200000
 C                  8.17900000    6.76200000   20.78600000
 O                  9.12900000    5.82400000   21.31200000
 H                  8.65800000    5.56000000   22.15400000
 C                  7.94800000   11.00500000   19.58500000
 O                  8.45400000   11.61500000   18.38900000
 H                  8.30700000   12.60300000   18.42600000
 C                  8.45300000    9.60900000   19.91000000
 O                  7.84900000    9.20600000   21.14800000
 C                  8.44600000    7.99500000   21.63300000
 O                  7.85500000    7.65500000   22.89500000
 H                  8.54785722    7.48214046   23.53661394
 H                  9.50048945    8.13213719   21.75193437
 H                  7.16999032    6.41878147   20.88087102
 H                  9.58448318    7.24833142   19.34652542
 H                  7.00289992    8.56503089   18.74231400
 H                  9.51726754    9.62801785   20.01896290
 H                  8.19207980   11.64316726   20.40844861
 H                  6.88197359   10.95895618   19.50520237
 H                  8.37554148    4.93819104   15.21575444
 H                  9.50941967    5.75374638   14.21960627
 H                  6.78018502    6.74951704   14.84962799
 H                  8.41137161    7.27864996   11.75148474
 H                  9.12429111    8.06890261   13.54553962
 H                  6.37555731    8.94792241   14.21463398
 H                  9.03823548    9.76785746   15.17580466
 H                  6.90556629    8.42412059   16.74964445

 1 2 1.0 41 1.0
 2 3 1.0 12 1.0 42 1.0
 3 4 1.0 6 1.0 43 1.0
 4 5 1.0
 5
 6 7 1.0 14 1.0 44 1.0
 7 8 1.0
 8
 9 10 1.0 12 1.0 38 1.0 39 1.0
 10 11 1.0
 11
 12 13 1.0 40 1.0
 13 14 1.0
 14 15 1.0 45 1.0
 15 16 1.0
 16 17 1.0 26 1.0 34 1.0
 17 18 1.0 20 1.0 33 1.0
 18 19 1.0
 19
 20 21 1.0 28 1.0 32 1.0
 21 22 1.0
 22
 23 24 1.0 26 1.0 36 1.0 37 1.0
 24 25 1.0
 25
 26 27 1.0 35 1.0
 27 28 1.0
 28 29 1.0 31 1.0
 29 30 1.0
 30
 31
 32
 33
 34
 35
 36
 37
 38
 39
 40
 41
 42
 43
 44
 45

