# freq=raman b3lyp/6-31+g(2d,p) geom=connectivity

423 8937/8937.com

0 1
 O                  8.34600000    7.64100000   12.20400000
 C                  8.95300000    8.00200000   13.45400000
 C                  8.36500000    9.32800000   13.90900000
 O                  8.51500000   10.41700000   12.98700000
 H                  8.25800000   10.08000000   12.08200000
 C                  8.75600000    9.66500000   15.33800000
 O                  8.30000000   10.90500000   15.89800000
 H                  8.48500000   10.94200000   16.88000000
 C                  8.80800000    5.48500000   14.27600000
 O                  8.47100000    4.79300000   13.06400000
 H                  8.51000000    3.80100000   13.18500000
 C                  8.46000000    6.95500000   14.43900000
 O                  8.86100000    7.26600000   15.78100000
 C                  8.35100000    8.52100000   16.25400000
 O                  9.07200000    8.78700000   17.46600000
 C                  8.43200000    8.39100000   18.68700000
 C                  9.06700000    7.11200000   19.20900000
 O                  8.76200000    6.09800000   18.24000000
 H                  8.78400000    6.42000000   17.29300000
 C                  8.45200000    6.71600000   20.54100000
 O                  9.03800000    5.53900000   21.11600000
 H                  8.65300000    5.30500000   22.00900000
 C                  7.99800000   10.80900000   19.33700000
 O                  8.86500000   11.54300000   18.46000000
 H                  8.52600000   12.48400000   18.47100000
 C                  8.60100000    9.47400000   19.74000000
 O                  8.02700000    9.05400000   20.98700000
 C                  8.58400000    7.85400000   21.54100000
 O                  7.89800000    7.47900000   22.74400000
 H                  8.53992592    7.26657087   23.42547266
 H                  9.03093337    7.45436427   11.55775439
 H                  8.33842553    4.95869024   15.08061037
 H                  9.86618199    5.39509544   14.40664476
 H                  7.39172968    7.01217915   14.41828587
 H                 10.02094304    8.02964681   13.39372299
 H                  7.30982746    9.15532665   13.95016815
 H                  9.82513494    9.70496198   15.35392260
 H                  7.29397542    8.49103551   16.41740491
 H                  7.81976532   11.39052348   20.21731974
 H                  7.06659736   10.63456748   18.84004686
 H                  9.64971328    9.62082516   19.89343671
 H                  7.39014974    8.22583531   18.50764376
 H                 10.12595111    7.23148178   19.30515954
 H                  7.41046741    6.52757335   20.38413938
 H                  9.61915325    8.01353707   21.75987366

 1 2 1.0 31 1.0
 2 3 1.0 12 1.0 35 1.0
 3 4 1.0 6 1.0 36 1.0
 4 5 1.0
 5
 6 7 1.0 14 1.0 37 1.0
 7 8 1.0
 8
 9 10 1.0 12 1.0 32 1.0 33 1.0
 10 11 1.0
 11
 12 13 1.0 34 1.0
 13 14 1.0
 14 15 1.0 38 1.0
 15 16 1.0
 16 17 1.0 26 1.0 42 1.0
 17 18 1.0 20 1.0 43 1.0
 18 19 1.0
 19
 20 21 1.0 28 1.0 44 1.0
 21 22 1.0
 22
 23 24 1.0 26 1.0 39 1.0 40 1.0
 24 25 1.0
 25
 26 27 1.0 41 1.0
 27 28 1.0
 28 29 1.0 45 1.0
 29 30 1.0
 30
 31
 32
 33
 34
 35
 36
 37
 38
 39
 40
 41
 42
 43
 44
 45

