# freq=raman b3lyp/6-31+g(2d,p) geom=connectivity

280 7308/7308.com

0 1
 O                  7.72000000    7.19800000   12.10400000
 C                  8.27300000    7.64200000   13.35100000
 C                  7.70700000    9.00000000   13.73400000
 O                  7.93300000   10.06200000   12.79500000
 H                  7.69700000    9.68400000   11.90000000
 C                  8.30300000    9.39200000   15.07600000
 O                  7.61800000   10.57800000   15.50200000
 H                  7.81600000   10.81000000   16.45400000
 C                  8.29600000    5.16900000   14.10500000
 O                  7.86100000    4.52200000   12.90100000
 H                  7.97200000    3.52900000   12.85600000
 C                  7.94400000    6.61400000   14.42200000
 O                  8.57900000    7.10800000   15.61000000
 C                  8.11000000    8.34600000   16.16200000
 O                  8.89800000    8.73200000   17.29800000
 C                  8.30500000    8.31000000   18.53500000
 C                  8.88700000    6.98000000   18.98700000
 O                  8.79900000    5.85500000   18.10000000
 H                  9.02000000    6.20000000   17.18800000
 C                  8.32800000    6.56300000   20.33700000
 O                  8.71700000    5.24100000   20.73800000
 H                  8.40100000    5.11000000   21.67800000
 C                  8.02700000   10.65000000   19.43000000
 O                  8.08600000   11.30800000   18.15600000
 H                  8.02200000   12.28600000   18.35300000
 C                  8.70000000    9.30000000   19.61800000
 O                  8.45600000    9.01200000   21.00300000
 C                  8.71400000    7.64000000   21.33700000
 O                  7.86000000    7.51500000   22.48400000
 H                  8.39711819    7.42879740   23.27499505
 H                  8.43179038    6.98192816   11.49714960
 H                  7.93120439    4.57866964   14.91945334
 H                  9.36385816    5.10303003   14.12006334
 H                  6.88717823    6.65168097   14.58511926
 H                  9.33581978    7.72000628   13.25493164
 H                  6.64991510    8.89210069   13.85981433
 H                  9.34580368    9.60135713   14.95925212
 H                  7.07680377    8.27009562   16.42966409
 H                  8.45016389   11.31777856   20.15104377
 H                  6.99273968   10.52479063   19.67398404
 H                  9.75351660    9.45726851   19.51666198
 H                  7.24042441    8.24897075   18.44637589
 H                  9.93194380    7.15477701   19.13681805
 H                  7.26102601    6.56880944   20.25679560
 H                  9.73644088    7.52026518   21.62885310

 1 2 1.0 31 1.0
 2 3 1.0 12 1.0 35 1.0
 3 4 1.0 6 1.0 36 1.0
 4 5 1.0
 5
 6 7 1.0 14 1.0 37 1.0
 7 8 1.0
 8
 9 10 1.0 12 1.0 32 1.0 33 1.0
 10 11 1.0
 11
 12 13 1.0 34 1.0
 13 14 1.0
 14 15 1.0 38 1.0
 15 16 1.0
 16 17 1.0 26 1.0 42 1.0
 17 18 1.0 20 1.0 43 1.0
 18 19 1.0
 19
 20 21 1.0 28 1.0 44 1.0
 21 22 1.0
 22
 23 24 1.0 26 1.0 39 1.0 40 1.0
 24 25 1.0
 25
 26 27 1.0 41 1.0
 27 28 1.0
 28 29 1.0 45 1.0
 29 30 1.0
 30
 31
 32
 33
 34
 35
 36
 37
 38
 39
 40
 41
 42
 43
 44
 45

