# freq=raman b3lyp/6-31+g(2d,p) geom=connectivity

280 7308/7308.com

0 1
O           7.72000         7.19800        12.10400
C           8.27300         7.64200        13.35100
C           7.70700         9.00000        13.73400
O           7.93300        10.06200        12.79500
H           7.69700         9.68400        11.90000
C           8.30300         9.39200        15.07600
O           7.61800        10.57800        15.50200
H           7.81600        10.81000        16.45400
C           8.29600         5.16900        14.10500
O           7.86100         4.52200        12.90100
H           7.97200         3.52900        12.85600
C           7.94400         6.61400        14.42200
O           8.57900         7.10800        15.61000
C           8.11000         8.34600        16.16200
O           8.89800         8.73200        17.29800
C           8.30500         8.31000        18.53500
C           8.88700         6.98000        18.98700
O           8.79900         5.85500        18.10000
H           9.02000         6.20000        17.18800
C           8.32800         6.56300        20.33700
O           8.71700         5.24100        20.73800
H           8.40100         5.11000        21.67800
C           8.02700        10.65000        19.43000
O           8.08600        11.30800        18.15600
H           8.02200        12.28600        18.35300
C           8.70000         9.30000        19.61800
O           8.45600         9.01200        21.00300
C           8.71400         7.64000        21.33700
O           7.86000         7.51500        22.48400

