# freq=raman b3lyp/6-31+g(2df,p) geom=connectivity

320 7000.com

0 1
 O                  7.71000000    7.63100000   12.38000000
 C                  8.24000000    7.96400000   13.67200000
 C                  7.82900000    9.36000000   14.11000000
 O                  8.34800000   10.33200000   13.19100000
 H                  8.01600000   10.06000000   12.28800000
 C                  8.34400000    9.74500000   15.48700000
 O                  7.90000000   11.04800000   15.89200000
 H                  8.20100000   11.25400000   16.82400000
 C                  8.13500000    5.54400000   14.59000000
 O                  7.58700000    4.93500000   13.41200000
 H                  7.86700000    3.97700000   13.35400000
 C                  7.86400000    7.02400000   14.80500000
 O                  8.48600000    7.39200000   16.04500000
 C                  8.03600000    8.67000000   16.51700000
 O                  8.77100000    8.91600000   17.72400000
 C                  8.00400000    8.56200000   18.88400000
 C                  8.42300000    7.17800000   19.35200000
 O                  7.94800000    6.21400000   18.40100000
 H                  8.36700000    6.45300000   17.52600000
 C                  7.84200000    6.88100000   20.72500000
 O                  8.49000000    5.66200000   21.11700000
 H                  8.45900000    5.44300000   22.09200000
 C                  7.88800000   10.98300000   19.49400000
 O                  8.56800000   11.62600000   18.40600000
 H                  8.46000000   12.61900000   18.37500000
 C                  8.30500000    9.59600000   19.95600000
 O                  7.61700000    9.24900000   21.16600000
 C                  8.13000000    8.01700000   21.69300000
 O                  7.36100000    7.83100000   22.89000000
 H                  7.95362520    7.71503526   23.63628919
 H                  9.17515981    8.09161004   21.90973561
 H                  6.78624820    6.72475577   20.64834574
 H                  9.49074615    7.12954003   19.40169706
 H                  6.96000591    8.56978252   18.64965885
 H                  9.35787682    9.59836701   20.14664310
 H                  7.96669617   11.63245452   20.34070877
 H                  6.85315525   10.92697091   19.22781007
 H                  6.98611650    8.64112768   16.72147743
 H                  9.40997945    9.79709778   15.41036043
 H                  8.43302513    7.47337975   11.76845236
 H                  6.76072745    9.42076355   14.11124694
 H                  9.30676911    7.95414072   13.58949872
 H                  6.80818345    7.12511378   14.94616452
 H                  7.75331311    5.01552873   15.43848879
 H                  9.19584309    5.40651621   14.56529881

 1 2 1.0 40 1.0
 2 3 1.0 12 1.0 42 1.0
 3 4 1.0 6 1.0 41 1.0
 4 5 1.0
 5
 6 7 1.0 14 1.0 39 1.0
 7 8 1.0
 8
 9 10 1.0 12 1.0 44 1.0 45 1.0
 10 11 1.0
 11
 12 13 1.0 43 1.0
 13 14 1.0
 14 15 1.0 38 1.0
 15 16 1.0
 16 17 1.0 26 1.0 34 1.0
 17 18 1.0 20 1.0 33 1.0
 18 19 1.0
 19
 20 21 1.0 28 1.0 32 1.0
 21 22 1.0
 22
 23 24 1.0 26 1.0 36 1.0 37 1.0
 24 25 1.0
 25
 26 27 1.0 35 1.0
 27 28 1.0
 28 29 1.0 31 1.0
 29 30 1.0
 30
 31
 32
 33
 34
 35
 36
 37
 38
 39
 40
 41
 42
 43
 44
 45

