# freq=raman b3lyp/6-31+g(2d,p) geom=connectivity

483 7682/7682.com

0 1
O           7.31700         7.60800        12.01500
C           7.98200         7.92500        13.24700
C           7.52600         9.27200        13.78500
O           7.77100        10.28300        12.79700
H           7.51700         9.94100        11.89200
C           8.23900         9.62200        15.08000
O           7.54200        10.69800        15.72500
H           7.85200        10.79600        16.67100
C           8.12700         5.43900        14.26900
O           7.61700         4.76600        13.10900
H           7.78100         3.78000        13.15400
C           7.72200         6.90300        14.34100
O           8.49600         7.36800        15.45600
C           7.96400         8.53300        16.10300
O           8.74900         8.75800        17.28300
C           8.18300         8.29500        18.51900
C           8.82500         7.04700        19.10100
O           8.72000         5.96600        18.16200
H           9.10100         6.23000        17.27600
C           8.39300         6.58200        20.48200
O           9.01500         5.40100        21.00800
H           8.54200         5.18000        21.86100
C           7.86100        10.67500        19.43800
O           8.40100        11.39000        18.31700
H           8.23700        12.36200        18.48700
C           8.30200         9.24400        19.70000
O           7.60000         8.73000        20.84200
C           8.43200         7.74100        21.46500
O           7.70500         7.48700        22.67600

