# freq=raman b3lyp/6-31+g(2d,p) geom=connectivity

483 7682/7682.com

0 1
 O                  7.31700000    7.60800000   12.01500000
 C                  7.98200000    7.92500000   13.24700000
 C                  7.52600000    9.27200000   13.78500000
 O                  7.77100000   10.28300000   12.79700000
 H                  7.51700000    9.94100000   11.89200000
 C                  8.23900000    9.62200000   15.08000000
 O                  7.54200000   10.69800000   15.72500000
 H                  7.85200000   10.79600000   16.67100000
 C                  8.12700000    5.43900000   14.26900000
 O                  7.61700000    4.76600000   13.10900000
 H                  7.78100000    3.78000000   13.15400000
 C                  7.72200000    6.90300000   14.34100000
 O                  8.49600000    7.36800000   15.45600000
 C                  7.96400000    8.53300000   16.10300000
 O                  8.74900000    8.75800000   17.28300000
 C                  8.18300000    8.29500000   18.51900000
 C                  8.82500000    7.04700000   19.10100000
 O                  8.72000000    5.96600000   18.16200000
 H                  9.10100000    6.23000000   17.27600000
 C                  8.39300000    6.58200000   20.48200000
 O                  9.01500000    5.40100000   21.00800000
 H                  8.54200000    5.18000000   21.86100000
 C                  7.86100000   10.67500000   19.43800000
 O                  8.40100000   11.39000000   18.31700000
 H                  8.23700000   12.36200000   18.48700000
 C                  8.30200000    9.24400000   19.70000000
 O                  7.60000000    8.73000000   20.84200000
 C                  8.43200000    7.74100000   21.46500000
 O                  7.70500000    7.48700000   22.67600000
 H                  8.32326386    7.33624347   23.39476440
 H                  9.42380203    8.10000072   21.64485332
 H                  7.35811402    6.32961090   20.38095169
 H                  9.86855014    7.26876529   19.18299547
 H                  7.14527528    8.09302967   18.35396849
 H                  9.33870344    9.28254836   19.96203053
 H                  8.08737571   11.24302589   20.31606641
 H                  6.79702656   10.66394293   19.32513612
 H                  7.97086824    7.43284754   11.33428131
 H                  7.76360180    4.93941172   15.14264369
 H                  9.19525964    5.37896219   14.25819286
 H                  6.68560420    6.95060172   14.60275910
 H                  9.03533656    7.96884528   13.06408010
 H                  6.47399625    9.22645188   13.97503545
 H                  9.28277696    9.81896851   14.95103079
 H                  6.92077568    8.43361869   16.31911657

 1 2 1.0 38 1.0
 2 3 1.0 12 1.0 42 1.0
 3 4 1.0 6 1.0 43 1.0
 4 5 1.0
 5
 6 7 1.0 14 1.0 44 1.0
 7 8 1.0
 8
 9 10 1.0 12 1.0 39 1.0 40 1.0
 10 11 1.0
 11
 12 13 1.0 41 1.0
 13 14 1.0
 14 15 1.0 45 1.0
 15 16 1.0
 16 17 1.0 26 1.0 34 1.0
 17 18 1.0 20 1.0 33 1.0
 18 19 1.0
 19
 20 21 1.0 28 1.0 32 1.0
 21 22 1.0
 22
 23 24 1.0 26 1.0 36 1.0 37 1.0
 24 25 1.0
 25
 26 27 1.0 35 1.0
 27 28 1.0
 28 29 1.0 31 1.0
 29 30 1.0
 30
 31
 32
 33
 34
 35
 36
 37
 38
 39
 40
 41
 42
 43
 44
 45

