# freq=raman b3lyp/6-31+g(2d,p) geom=connectivity

423 9655/9655.com

0 1
 O                  7.81200000    7.61100000   12.07000000
 C                  8.19500000    8.00900000   13.39400000
 C                  7.53500000    9.28000000   13.90500000
 O                  7.81100000   10.35900000   13.00000000
 H                  7.51600000   10.02200000   12.10600000
 C                  8.12000000    9.53300000   15.28500000
 O                  7.58400000   10.68400000   15.95500000
 H                  8.07800000   10.92400000   16.79100000
 C                  8.57800000    5.50700000   14.09600000
 O                  8.32300000    4.86300000   12.83900000
 H                  8.57700000    3.89700000   12.87500000
 C                  7.97200000    6.87200000   14.37800000
 O                  8.35700000    7.12200000   15.73700000
 C                  7.90300000    8.38200000   16.25300000
 O                  8.68200000    8.63700000   17.43100000
 C                  8.13900000    8.49000000   18.75100000
 C                  8.59900000    7.14900000   19.30100000
 O                  8.35100000    5.99200000   18.48900000
 H                  8.66700000    6.22100000   17.56800000
 C                  8.16400000    6.73400000   20.69700000
 O                  8.81600000    5.53200000   21.13100000
 H                  8.35200000    5.30400000   21.98700000
 C                  8.06200000   10.98500000   19.54600000
 O                  8.50900000   11.58800000   18.32300000
 H                  8.27800000   12.55200000   18.46100000
 C                  8.51000000    9.55100000   19.77400000
 O                  7.90100000    9.20200000   21.02600000
 C                  8.34500000    7.95600000   21.58200000
 O                  7.46800000    7.89600000   22.71600000
 H                  7.98874793    7.85338832   23.52136069
 H                  8.59881342    7.45266026   11.54326177
 H                  8.24154077    4.84481622   14.86619986
 H                  9.63909312    5.60421824   14.19362169
 H                  6.91291016    6.72073964   14.39668173
 H                  9.24810320    8.19657083   13.36771640
 H                  6.47790636    9.13302120   13.98148701
 H                  9.17434594    9.67689248   15.17297498
 H                  6.86676604    8.31582281   16.51134039
 H                  8.41832867   11.57963001   20.36107363
 H                  6.99227027   11.00629436   19.55717379
 H                  9.57279145    9.54389602   19.89778965
 H                  7.07236453    8.46861914   18.66895344
 H                  9.66446107    7.23189017   19.35412191
 H                  7.11535345    6.52538188   20.65554050
 H                  9.36206532    8.03522913   21.90480161

 1 2 1.0 31 1.0
 2 3 1.0 12 1.0 35 1.0
 3 4 1.0 6 1.0 36 1.0
 4 5 1.0
 5
 6 7 1.0 14 1.0 37 1.0
 7 8 1.0
 8
 9 10 1.0 12 1.0 32 1.0 33 1.0
 10 11 1.0
 11
 12 13 1.0 34 1.0
 13 14 1.0
 14 15 1.0 38 1.0
 15 16 1.0
 16 17 1.0 26 1.0 42 1.0
 17 18 1.0 20 1.0 43 1.0
 18 19 1.0
 19
 20 21 1.0 28 1.0 44 1.0
 21 22 1.0
 22
 23 24 1.0 26 1.0 39 1.0 40 1.0
 24 25 1.0
 25
 26 27 1.0 41 1.0
 27 28 1.0
 28 29 1.0 45 1.0
 29 30 1.0
 30
 31
 32
 33
 34
 35
 36
 37
 38
 39
 40
 41
 42
 43
 44
 45

