# freq=raman b3lyp/6-31+g(d,p) geom=connectivity

550 7000.com

0 1
 O                  9.86300000    7.05600000   11.01700000
 C                 10.55600000    7.27600000   12.25400000
 C                 10.40800000    8.70300000   12.75600000
 O                 11.10100000    9.55700000   11.83500000
 H                 10.92900000    9.11600000   10.95500000
 C                 10.77800000    8.92000000   14.21500000
 O                 10.23800000   10.03600000   14.93600000
 H                 10.62300000   10.83000000   14.46600000
 C                  9.85600000    4.87700000   12.65900000
 O                  9.58900000    3.90500000   13.68100000
 H                  9.71600000    3.01500000   13.24500000
 C                  9.80500000    6.31200000   13.15700000
 O                 10.55600000    6.46000000   14.37100000
 C                 10.39900000    7.71200000   15.05500000
 O                 11.31100000    7.57300000   16.15400000
 C                 10.60000000    7.87100000   17.36500000
 C                  9.31600000    7.20900000   17.83800000
 O                  8.28400000    8.17800000   18.07300000
 H                  7.46200000    7.78900000   18.49000000
 C                  9.48300000    6.17400000   18.93800000
 O                 10.12600000    5.02700000   18.36300000
 H                  9.82600000    4.91000000   17.41600000
 C                 12.06200000    9.55700000   18.48000000
 O                 11.11500000   10.62700000   18.61600000
 H                 10.45600000   10.65400000   17.86400000
 C                 11.50500000    8.14500000   18.55500000
 O                 10.90400000    7.95200000   19.84300000
 C                 10.34800000    6.65300000   20.09200000
 O                  9.70400000    6.50200000   21.36600000
 H                 10.50098191    6.93039210   10.31074103
 H                 10.36933975    6.42054624   22.05323235
 H                  8.51991447    5.89220054   19.30942338
 H                 11.18477951    5.98662057   20.11726881
 H                 12.33255068    7.47022829   18.48613046
 H                  8.97387951    6.64822108   16.99338140
 H                 10.23966183    8.85202053   17.13553297
 H                 12.55338679    9.66864658   17.53608578
 H                 12.79506906    9.66445081   19.25198709
 H                 10.82902934    4.68979640   12.25518231
 H                  9.13299160    4.76008895   11.87894189
 H                  8.79362105    6.63242940   13.29605974
 H                 11.58634897    6.99954687   12.17120713
 H                  9.36948464    8.94672229   12.67242188
 H                 11.84346629    9.01079556   14.25291762
 H                  9.39722191    7.81204790   15.41739630

 1 2 1.0 30 1.0
 2 3 1.0 12 1.0 42 1.0
 3 4 1.0 6 1.0 43 1.0
 4 5 1.0
 5
 6 7 1.0 14 1.0 44 1.0
 7 8 1.0
 8
 9 10 1.0 12 1.0 39 1.0 40 1.0
 10 11 1.0
 11
 12 13 1.0 41 1.0
 13 14 1.0
 14 15 1.0 45 1.0
 15 16 1.0
 16 17 1.0 26 1.0 36 1.0
 17 18 1.0 20 1.0 35 1.0
 18 19 1.0
 19
 20 21 1.0 28 1.0 32 1.0
 21 22 1.0
 22
 23 24 1.0 26 1.0 37 1.0 38 1.0
 24 25 1.0
 25
 26 27 1.0 34 1.0
 27 28 1.0
 28 29 1.0 33 1.0
 29 31 1.0
 30
 31
 32
 33
 34
 35
 36
 37
 38
 39
 40
 41
 42
 43
 44
 45

