# freq=raman b3lyp/6-31+g(2d,p) geom=connectivity

280 6697/6697.com

0 1
 O                  7.79800000    7.36600000   12.25200000
 C                  8.17800000    7.79600000   13.56800000
 C                  7.52900000    9.11900000   13.94100000
 O                  7.83800000   10.25200000   13.11700000
 H                  7.82400000    9.86000000   12.19700000
 C                  7.85300000    9.43900000   15.39200000
 O                  7.31900000   10.66500000   15.91300000
 H                  7.72900000   10.93000000   16.78600000
 C                  8.35600000    5.33100000   14.33800000
 O                  7.59100000    4.65600000   13.32900000
 H                  7.49700000    3.66600000   13.44000000
 C                  7.79200000    6.72200000   14.57200000
 O                  8.20800000    7.03700000   15.90900000
 C                  7.72100000    8.29900000   16.38800000
 O                  8.62500000    8.59400000   17.46300000
 C                  8.27800000    8.14900000   18.78300000
 C                  8.83700000    6.82300000   19.27200000
 O                  8.40400000    5.76800000   18.40100000
 H                  8.41700000    6.15600000   17.48000000
 C                  8.59000000    6.51200000   20.73900000
 O                  9.54600000    5.58500000   21.27400000
 H                  9.22200000    5.43000000   22.20700000
 C                  7.85100000   10.64500000   19.56600000
 O                  8.16500000   11.34800000   18.35500000
 H                  8.31900000   12.31900000   18.53800000
 C                  8.42800000    9.26000000   19.80900000
 O                  7.90200000    8.84800000   21.07900000
 C                  8.65600000    7.75100000   21.61700000
 O                  7.97700000    7.41100000   22.83400000
 H                  8.62281051    7.21987754   23.51810598
 H                  8.58611754    7.19575039   11.73095700
 H                  9.37404057    5.40988791   14.01820303
 H                  8.31251116    4.77233569   15.24953876
 H                  6.72470690    6.64596757   14.56987771
 H                  9.24058715    7.91934600   13.59237874
 H                  6.47079705    8.97239971   13.88087617
 H                  8.90699186    9.62169546   15.36702951
 H                  6.71641147    8.21334730   16.74628132
 H                  8.16093276   11.26469970   20.38136125
 H                  6.78569559   10.55713734   19.61402779
 H                  9.48072139    9.39596196   19.94387777
 H                  7.22294782    7.97913386   18.72905197
 H                  9.89898513    6.88797301   19.15857120
 H                  7.61423914    6.08300123   20.83254574
 H                  9.66933729    8.03574033   21.80927712

 1 2 1.0 31 1.0
 2 3 1.0 12 1.0 35 1.0
 3 4 1.0 6 1.0 36 1.0
 4 5 1.0
 5
 6 7 1.0 14 1.0 37 1.0
 7 8 1.0
 8
 9 10 1.0 12 1.0 32 1.0 33 1.0
 10 11 1.0
 11
 12 13 1.0 34 1.0
 13 14 1.0
 14 15 1.0 38 1.0
 15 16 1.0
 16 17 1.0 26 1.0 42 1.0
 17 18 1.0 20 1.0 43 1.0
 18 19 1.0
 19
 20 21 1.0 28 1.0 44 1.0
 21 22 1.0
 22
 23 24 1.0 26 1.0 39 1.0 40 1.0
 24 25 1.0
 25
 26 27 1.0 41 1.0
 27 28 1.0
 28 29 1.0 45 1.0
 29 30 1.0
 30
 31
 32
 33
 34
 35
 36
 37
 38
 39
 40
 41
 42
 43
 44
 45

