# freq=raman b3lyp/6-31+g(d,p) geom=connectivity

320 7000.com

0 1
O           7.36100         7.83100        22.89000
C           8.04000         8.02100        24.14000
C           7.63100         9.38400        24.67400
O           7.88200        10.32500        23.61900
H           7.34600         9.94400        22.86600
C           8.19500         9.62000        26.06500
O           7.55800        10.74000        26.69700
H           8.20600        11.21800        27.28900
C           8.21700         5.55500        24.78800
O           7.90700         4.92000        23.53900
H           8.19900         3.96600        23.47700
C           7.64000         6.92400        25.11300
O           8.21900         7.12300        26.41100
C           8.02700         8.42300        26.98600
O           8.97200         8.55400        28.05900
C           8.47500         8.30200        29.38100
C           8.91800         6.93100        29.86700
O           8.72600         5.95800        28.83000
H           8.73400         6.42200        27.94400
C           8.45700         6.49700        31.24900
O           9.21600         5.36400        31.69700
H           8.93200         4.98200        32.57700
C           8.51100        10.59500        30.24100
O           8.69100        11.51500        29.15500
H           8.45300        12.45200        29.41100
C           9.01300         9.18300        30.49700
O           8.43500         8.92600        31.78500
C           8.80600         7.61100        32.22200
O           7.99200         7.34000        33.37300

