# freq=raman b3lyp/6-31+g(2d,p) geom=connectivity

550 7166/7166.com

0 1
O           9.61700         7.84700        11.11900
C          10.33000         7.83800        12.36300
C          10.56300         9.25300        12.86900
O          11.12500        10.18300        11.93100
H          10.79300        10.07900        10.99400
C          11.27400         9.32500        14.21000
O          11.38900        10.62400        14.80900
H          11.37000        11.46200        14.26400
C           9.67500         5.47200        12.95500
O           9.28800         4.55900        13.99300
H           9.10600         3.60700        13.74800
C           9.76400         6.91300        13.42900
O          10.67900         6.92000        14.53400
C          10.61500         8.25300        15.06200
O          11.25300         7.98000        16.31800
C          10.42100         8.14100        17.47600
C          10.13000         6.73800        17.98500
O           9.40200         5.90900        17.06700
H           9.71800         6.01600        16.12400
C           9.35800         6.74400        19.29400
O           8.77000         5.48000        19.63300
H           8.27900         5.16500        18.82000
C          11.56500        10.28900        18.33700
O          10.71800        11.36300        18.77000
H          11.02700        12.18800        18.29700
C          11.27300         8.81200        18.54100
O          10.72300         8.77400        19.86500
C          10.27300         7.47100        20.26600
O           9.58600         7.50600        21.52600

