# freq=raman b3lyp/6-31+g(d,p) geom=connectivity

320 9000.com

0 1
 O                  7.81700000    7.63700000   22.87800000
 C                  8.27000000    7.86800000   24.22000000
 C                  7.85800000    9.23400000   24.74500000
 O                  8.32900000   10.25300000   23.85200000
 H                  8.03400000    9.82500000   22.99800000
 C                  8.29700000    9.49900000   26.17600000
 O                  7.66500000   10.64500000   26.76500000
 H                  7.85600000   10.74800000   27.74200000
 C                  8.45000000    5.38600000   24.91200000
 O                  7.99800000    4.75200000   23.70600000
 H                  7.76500000    3.78300000   23.78600000
 C                  7.92400000    6.77800000   25.22100000
 O                  8.42400000    7.10100000   26.52700000
 C                  7.94300000    8.33300000   27.08400000
 O                  8.74900000    8.58500000   28.24400000
 C                  8.06800000    8.17200000   29.43800000
 C                  8.77800000    6.90200000   29.87800000
 O                  8.52800000    5.85100000   28.93300000
 H                  8.77700000    6.29600000   28.07200000
 C                  8.26600000    6.37900000   31.21000000
 O                  8.97000000    5.24200000   31.73100000
 H                  8.52100000    4.77500000   32.49300000
 C                  7.51100000   10.46700000   30.34000000
 O                  7.98400000   11.37100000   29.33100000
 H                  7.83100000   12.31600000   29.62000000
 C                  8.20800000    9.14200000   30.60000000
 O                  7.56500000    8.63200000   31.77700000
 C                  8.22000000    7.45800000   32.28000000
 O                  7.54600000    7.30900000   33.53800000
 H                  8.57481266    7.53702672   22.29720286
 H                  8.18805638    4.75000050   25.73162807
 H                  9.51754330    5.44397330   24.86852124
 H                  6.85739254    6.71869843   25.28208883
 H                  9.33851078    7.88480139   24.16612587
 H                  6.78866297    9.26906649   24.73126497
 H                  9.35734378    9.64155247   26.19180707
 H                  6.89901101    8.29852999   27.31594571
 H                  8.19473304    7.22576825   34.24072180
 H                  7.51127439   11.00529916   31.26473453
 H                  6.49238186   10.24127840   30.10258296
 H                  9.24447477    9.31429014   30.80232685
 H                  7.03647638    7.97348531   29.23440496
 H                  9.83052357    7.08303397   29.94373311
 H                  7.25636643    6.06509246   31.04567681
 H                  9.23378159    7.72290444   32.49673144

 1 2 1.0 30 1.0
 2 3 1.0 12 1.0 34 1.0
 3 4 1.0 6 1.0 35 1.0
 4 5 1.0
 5
 6 7 1.0 14 1.0 36 1.0
 7 8 1.0
 8
 9 10 1.0 12 1.0 31 1.0 32 1.0
 10 11 1.0
 11
 12 13 1.0 33 1.0
 13 14 1.0
 14 15 1.0 37 1.0
 15 16 1.0
 16 17 1.0 26 1.0 42 1.0
 17 18 1.0 20 1.0 43 1.0
 18 19 1.0
 19
 20 21 1.0 28 1.0 44 1.0
 21 22 1.0
 22
 23 24 1.0 26 1.0 39 1.0 40 1.0
 24 25 1.0
 25
 26 27 1.0 41 1.0
 27 28 1.0
 28 29 1.0 45 1.0
 29 38 1.0
 30
 31
 32
 33
 34
 35
 36
 37
 38
 39
 40
 41
 42
 43
 44
 45

