# freq=raman b3lyp/6-31+g(d,p) geom=connectivity

300 8000.com

0 1
O           7.58500         7.50100        23.11300
C           8.13400         7.89300        24.37900
C           7.45800         9.17700        24.83300
O           7.73100        10.23400        23.90200
H           7.66600         9.76300        23.02200
C           7.93700         9.58800        26.21600
O           7.14800        10.68700        26.69600
H           7.39900        10.80700        27.65700
C           8.49800         5.46500        25.15300
O           8.00100         4.74400        24.01600
H           8.15200         3.78900        24.27500
C           7.92600         6.84000        25.45600
O           8.53000         7.22400        26.69900
C           7.91300         8.42300        27.19200
O           8.76300         8.73700        28.30500
C           8.11900         8.34700        29.52700
C           8.56700         6.99900        30.06700
O           8.24600         5.99400        29.09300
H           8.40500         6.42900        28.20600
C           7.94900         6.55900        31.38400
O           8.60900         5.40200        31.91800
H           8.36200         5.21900        32.87000
C           7.91400        10.79500        30.38100
O           7.99900        11.38100        29.07400
H           8.22900        12.34800        29.18100
C           8.45000         9.38700        30.58500
O           7.75200         8.94300        31.75700
C           8.21500         7.71400        32.33500
O           7.42200         7.58600        33.52400

