# freq=raman b3lyp/6-31+g(d,p) geom=connectivity

300 5000.com

0 1
 O                  7.70300000    7.59000000   22.51300000
 C                  8.11000000    7.98800000   23.83000000
 C                  7.59600000    9.37200000   24.19300000
 O                  8.14600000   10.35500000   23.30400000
 H                  7.76500000   10.16900000   22.39800000
 C                  7.99600000    9.83500000   25.58400000
 O                  7.32800000   10.93900000   26.21100000
 H                  7.74100000   11.19700000   27.08400000
 C                  8.41200000    5.59800000   24.80900000
 O                  8.20600000    4.96600000   23.53700000
 H                  8.32000000    4.00100000   23.77400000
 C                  7.82500000    6.99400000   24.94500000
 O                  8.19600000    7.35500000   26.28300000
 C                  7.82900000    8.70800000   26.59100000
 O                  8.67600000    8.88900000   27.73500000
 C                  8.03500000    8.55400000   28.97500000
 C                  8.61300000    7.22700000   29.43700000
 O                  8.35800000    6.14500000   28.52900000
 H                  8.73500000    6.47400000   27.66400000
 C                  7.95900000    6.85700000   30.75900000
 O                  8.43300000    5.67300000   31.41400000
 H                  7.96200000    5.47100000   32.27300000
 C                  7.95300000   11.05800000   29.75000000
 O                  8.43100000   11.68700000   28.55200000
 H                  8.43100000   12.68100000   28.66200000
 C                  8.32700000    9.61100000   30.02800000
 O                  7.70100000    9.16700000   31.24000000
 C                  8.21400000    7.94500000   31.79000000
 O                  7.38700000    7.75200000   32.94600000
 H                  7.94202763    7.62301105   33.71859703
 H                  8.48014225    7.42695991   21.97349295
 H                  7.97880684    4.97740020   25.56537264
 H                  9.46550283    5.65898435   24.98595396
 H                  6.76222501    6.87023662   24.95458853
 H                  9.17559079    8.07508845   23.78719968
 H                  6.52909660    9.38261612   24.11234994
 H                  9.03725793   10.07815805   25.54455271
 H                  6.81149218    8.70967568   26.92202120
 H                  8.29877716   11.64194431   30.57725280
 H                  6.88459994   11.11485380   29.73625394
 H                  9.38354283    9.59447975   30.19635775
 H                  6.97888995    8.46303682   28.82920127
 H                  9.66849107    7.32979242   29.57938093
 H                  6.90381995    6.76660128   30.60628088
 H                  9.24994222    8.02551585   32.04542302

 1 2 1.0 31 1.0
 2 3 1.0 12 1.0 35 1.0
 3 4 1.0 6 1.0 36 1.0
 4 5 1.0
 5
 6 7 1.0 14 1.0 37 1.0
 7 8 1.0
 8
 9 10 1.0 12 1.0 32 1.0 33 1.0
 10 11 1.0
 11
 12 13 1.0 34 1.0
 13 14 1.0
 14 15 1.0 38 1.0
 15 16 1.0
 16 17 1.0 26 1.0 42 1.0
 17 18 1.0 20 1.0 43 1.0
 18 19 1.0
 19
 20 21 1.0 28 1.0 44 1.0
 21 22 1.0
 22
 23 24 1.0 26 1.0 39 1.0 40 1.0
 24 25 1.0
 25
 26 27 1.0 41 1.0
 27 28 1.0
 28 29 1.0 45 1.0
 29 30 1.0
 30
 31
 32
 33
 34
 35
 36
 37
 38
 39
 40
 41
 42
 43
 44
 45

