# freq=raman b3lyp/6-31+g(2d,p) geom=connectivity

483 5000/5000.com

0 1
 O                  7.68500000    7.51600000   12.25500000
 C                  8.15300000    8.01500000   13.51700000
 C                  7.62500000    9.35400000   14.00400000
 O                  7.47200000   10.27000000   12.90900000
 H                  7.58600000    9.66400000   12.12200000
 C                  8.27700000    9.74700000   15.32000000
 O                  7.67200000   10.82300000   16.05200000
 H                  8.12000000   11.03500000   16.92000000
 C                  8.39800000    5.54500000   14.34700000
 O                  7.95200000    4.83800000   13.18200000
 H                  8.01400000    3.85100000   13.33300000
 C                  7.94600000    6.97300000   14.60400000
 O                  8.61600000    7.36200000   15.81200000
 C                  8.14300000    8.61500000   16.32600000
 O                  8.89700000    8.81800000   17.53000000
 C                  8.22400000    8.42300000   18.73500000
 C                  8.78600000    7.09900000   19.22600000
 O                  8.47400000    6.05300000   18.29400000
 H                  8.45200000    6.45600000   17.37900000
 C                  8.27700000    6.74000000   20.61300000
 O                  8.91700000    5.53800000   21.06400000
 H                  8.77800000    5.30600000   22.02700000
 C                  7.83000000   10.73200000   19.60200000
 O                  8.47200000   11.53000000   18.59600000
 H                  8.39200000   12.51100000   18.77200000
 C                  8.55500000    9.41700000   19.83600000
 O                  8.01200000    9.07400000   21.11900000
 C                  8.53800000    7.84000000   21.62900000
 O                  7.90200000    7.54400000   22.88000000
 H                  8.57134638    7.38554710   23.54967761
 H                  8.43631959    7.29626260   11.69927133
 H                  8.10520607    4.96521527   15.19730664
 H                  9.46756370    5.55468424   14.31802247
 H                  6.89730390    6.94089978   14.81401443
 H                  9.21107068    8.13511658   13.41231740
 H                  6.61469322    9.14468358   14.28749047
 H                  9.31261779    9.96144099   15.15748586
 H                  7.10986364    8.51016296   16.58395048
 H                  7.80523548   11.28294513   20.51892212
 H                  6.82655538   10.52528160   19.29334744
 H                  9.61119971    9.57507145   19.90199696
 H                  7.16696625    8.35806242   18.58215119
 H                  9.85085026    7.19024544   19.27765464
 H                  7.22244867    6.56760978   20.55729444
 H                  9.59238344    7.93953106   21.78154222

 1 2 1.0 31 1.0
 2 3 1.0 12 1.0 35 1.0
 3 4 1.0 6 1.0 36 1.0
 4 5 1.0
 5
 6 7 1.0 14 1.0 37 1.0
 7 8 1.0
 8
 9 10 1.0 12 1.0 32 1.0 33 1.0
 10 11 1.0
 11
 12 13 1.0 34 1.0
 13 14 1.0
 14 15 1.0 38 1.0
 15 16 1.0
 16 17 1.0 26 1.0 42 1.0
 17 18 1.0 20 1.0 43 1.0
 18 19 1.0
 19
 20 21 1.0 28 1.0 44 1.0
 21 22 1.0
 22
 23 24 1.0 26 1.0 39 1.0 40 1.0
 24 25 1.0
 25
 26 27 1.0 41 1.0
 27 28 1.0
 28 29 1.0 45 1.0
 29 30 1.0
 30
 31
 32
 33
 34
 35
 36
 37
 38
 39
 40
 41
 42
 43
 44
 45

