# freq=raman b3lyp/6-31+g(2d,p) geom=connectivity

300 9485/9485.com

0 1
O           7.48100         7.65200        12.24700
C           7.92600         8.05900        13.54900
C           7.25700         9.32100        14.06700
O           7.49200        10.33500        13.07800
H           7.15000         9.94900        12.22100
C           7.77900         9.76100        15.42500
O           7.20900        10.99300        15.89000
H           7.41900        11.20000        16.84500
C           8.11700         5.61600        14.17900
O           7.60900         4.86200        13.06800
H           7.70700         3.89200        13.29100
C           7.66500         7.00200        14.61000
O           8.21300         7.36200        15.88700
C           7.62500         8.57900        16.36800
O           8.43700         8.87500        17.51400
C           7.95800         8.43700        18.79400
C           8.71700         7.23900        19.34000
O           8.81100         6.23100        18.32300
H           8.92700         6.63100        17.41400
C           8.10600         6.76600        20.64900
O           8.58200         5.54500        21.23400
H           8.08200         5.37000        22.08300
C           7.42600        10.84700        19.52000
O           7.96300        11.56500        18.40000
H           7.81500        12.54700        18.51200
C           8.11400         9.53000        19.83900
O           7.60900         9.07900        21.10400
C           8.23200         7.90600        21.64700
O           7.49500         7.59000        22.83800

