# freq=raman b3lyp/6-31+g(2d,p) geom=connectivity

300 9485/9485.com

0 1
 O                  7.48100000    7.65200000   12.24700000
 C                  7.92600000    8.05900000   13.54900000
 C                  7.25700000    9.32100000   14.06700000
 O                  7.49200000   10.33500000   13.07800000
 H                  7.15000000    9.94900000   12.22100000
 C                  7.77900000    9.76100000   15.42500000
 O                  7.20900000   10.99300000   15.89000000
 H                  7.41900000   11.20000000   16.84500000
 C                  8.11700000    5.61600000   14.17900000
 O                  7.60900000    4.86200000   13.06800000
 H                  7.70700000    3.89200000   13.29100000
 C                  7.66500000    7.00200000   14.61000000
 O                  8.21300000    7.36200000   15.88700000
 C                  7.62500000    8.57900000   16.36800000
 O                  8.43700000    8.87500000   17.51400000
 C                  7.95800000    8.43700000   18.79400000
 C                  8.71700000    7.23900000   19.34000000
 O                  8.81100000    6.23100000   18.32300000
 H                  8.92700000    6.63100000   17.41400000
 C                  8.10600000    6.76600000   20.64900000
 O                  8.58200000    5.54500000   21.23400000
 H                  8.08200000    5.37000000   22.08300000
 C                  7.42600000   10.84700000   19.52000000
 O                  7.96300000   11.56500000   18.40000000
 H                  7.81500000   12.54700000   18.51200000
 C                  8.11400000    9.53000000   19.83900000
 O                  7.60900000    9.07900000   21.10400000
 C                  8.23200000    7.90600000   21.64700000
 O                  7.49500000    7.59000000   22.83800000
 H                  8.24222812    7.47748407   11.68872055
 H                  7.98549685    4.98998259   15.03673488
 H                  9.17170130    5.69408620   14.01649548
 H                  6.60362852    6.95181658   14.73598495
 H                  8.98054957    8.23383994   13.50150044
 H                  6.20371090    9.14808167   14.14170825
 H                  8.82917566    9.93276688   15.31307490
 H                  6.60250268    8.43316069   16.64751767
 H                  8.10750235    7.40042783   23.55249511
 H                  7.49028281   11.47610833   20.38312828
 H                  6.39308698   10.64672646   19.32536905
 H                  9.15971089    9.72608384   19.95275355
 H                  6.92217298    8.18273581   18.70848914
 H                  9.71313836    7.56460214   19.55585090
 H                  7.06095672    6.62770637   20.46553496
 H                  9.25944688    8.09609844   21.87746797

 1 2 1.0 30 1.0
 2 3 1.0 12 1.0 34 1.0
 3 4 1.0 6 1.0 35 1.0
 4 5 1.0
 5
 6 7 1.0 14 1.0 36 1.0
 7 8 1.0
 8
 9 10 1.0 12 1.0 31 1.0 32 1.0
 10 11 1.0
 11
 12 13 1.0 33 1.0
 13 14 1.0
 14 15 1.0 37 1.0
 15 16 1.0
 16 17 1.0 26 1.0 42 1.0
 17 18 1.0 20 1.0 43 1.0
 18 19 1.0
 19
 20 21 1.0 28 1.0 44 1.0
 21 22 1.0
 22
 23 24 1.0 26 1.0 39 1.0 40 1.0
 24 25 1.0
 25
 26 27 1.0 41 1.0
 27 28 1.0
 28 29 1.0 45 1.0
 29 38 1.0
 30
 31
 32
 33
 34
 35
 36
 37
 38
 39
 40
 41
 42
 43
 44
 45

