#p uff geom=connectivity

10000.pdb

0 1
 O-O_3             15.66200000   15.80200000   12.40300000
 C-C_3             16.22100000   16.16800000   13.67300000
 C-C_3             15.53900000   17.43500000   14.16100000
 O-O_3             15.61000000   18.52200000   13.22700000
 H-H_              15.55000000   18.19600000   12.28300000
 C-C_3             16.11700000   17.83700000   15.50800000
 O-O_3             15.77100000   19.08500000   16.12700000
 H-H_              16.33500000   19.12400000   16.95200000
 C-C_3             16.96200000   13.88400000   14.31100000
 O-O_3             16.19700000   13.09500000   13.38800000
 H-H_              16.18900000   12.11200000   13.57400000
 C-C_3             16.15400000   15.09500000   14.74800000
 O-O_3             16.85500000   15.60000000   15.89400000
 C-C_3             16.15700000   16.69300000   16.50800000
 O-O_3             16.92500000   16.95900000   17.69000000
 C-C_3             16.32600000   16.59800000   18.94300000
 C-C_3             16.97900000   15.31200000   19.42200000
 O-O_3             17.11400000   14.19800000   18.52700000
 H-H_              17.29600000   14.66300000   17.66100000
 C-C_3             16.44300000   14.89700000   20.78200000
 O-O_3             17.01800000   13.69600000   21.31800000
 H-H_              16.67600000   13.49400000   22.23600000
 C-C_3             16.03100000   19.02900000   19.72800000
 O-O_3             16.68600000   19.68100000   18.63000000
 H-H_              16.30700000   20.60500000   18.59000000
 C-C_3             16.50200000   17.62100000   20.05300000
 O-O_3             15.98200000   17.12600000   21.29600000
 C-C_3             16.70800000   15.99500000   21.79900000
 O-O_3             15.90800000   15.71600000   22.95700000
 H-H_              16.37095238   15.62275273   11.78102176
 H-H_              16.48094571   15.53557689   23.70585293
 H-H_              17.74084814   16.18606929   22.00300305
 H-H_              15.38520161   14.75828624   20.70001788
 H-H_              17.99064225   15.60081286   19.61710787
 H-H_              15.28109785   16.42383189   18.79218566
 H-H_              17.55893134   17.70350749   20.19787465
 H-H_              16.16655917   19.63326086   20.60057809
 H-H_              14.98411398   18.98620714   19.51097825
 H-H_              17.86375429   14.21081823   13.83673314
 H-H_              17.20581568   13.29145337   15.16793781
 H-H_              15.14428037   14.83303323   14.98620092
 H-H_              17.25387850   16.39791553   13.51425225
 H-H_              14.50427204   17.20639467   14.30924862
 H-H_              17.15074406   17.98198678   15.27294246
 H-H_              15.16348930   16.39527054   16.77104686

 1 2 1.0 30 1.0
 2 3 1.0 12 1.0 42 1.0
 3 4 1.0 6 1.0 43 1.0
 4 5 1.0
 5
 6 7 1.0 14 1.0 44 1.0
 7 8 1.0
 8
 9 10 1.0 12 1.0 39 1.0 40 1.0
 10 11 1.0
 11
 12 13 1.0 41 1.0
 13 14 1.0
 14 15 1.0 45 1.0
 15 16 1.0
 16 17 1.0 26 1.0 35 1.0
 17 18 1.0 20 1.0 34 1.0
 18 19 1.0
 19
 20 21 1.0 28 1.0 33 1.0
 21 22 1.0
 22
 23 24 1.0 26 1.0 37 1.0 38 1.0
 24 25 1.0
 25
 26 27 1.0 36 1.0
 27 28 1.0
 28 29 1.0 32 1.0
 29 31 1.0
 30
 31
 32
 33
 34
 35
 36
 37
 38
 39
 40
 41
 42
 43
 44
 45

