#p geom=connectivity and charge check here keywords multiplicity. ut

10000.pdb

0 1
 O                 13.16400000    4.21500000   30.53500000
 C                 12.46300000    4.09500000   31.78100000
 C                 12.70300000    2.70300000   32.34300000
 O                 12.32000000    1.68600000   31.40600000
 H                 12.29000000    2.13300000   30.51200000
 C                 12.13800000    2.44200000   33.73000000
 O                 12.57600000    1.14000000   34.14400000
 H                 12.45700000    1.02900000   35.13100000
 C                 12.62000000    6.48400000   32.67400000
 O                 13.24800000    7.17700000   31.58600000
 H                 13.11300000    8.14200000   31.80800000
 C                 12.98900000    5.02200000   32.86500000
 O                 12.43500000    4.83900000   34.17700000
 C                 12.78800000    3.51200000   34.59300000
 O                 12.20200000    3.23900000   35.87400000
 C                 12.69700000    3.76200000   37.11600000
 C                 12.27400000    5.16600000   37.51300000
 O                 12.71900000    6.10900000   36.52800000
 H                 12.51900000    5.61200000   35.68400000
 C                 12.83500000    5.40500000   38.90600000
 O                 12.28200000    6.60000000   39.47500000
 H                 12.65700000    6.88800000   40.35500000
 C                 13.15200000    1.47000000   37.79000000
 O                 12.43200000    0.68000000   36.83300000
 H                 12.58600000   -0.27000000   37.10600000
 C                 12.39500000    2.72700000   38.18700000
 O                 13.09400000    3.03500000   39.40200000
 C                 12.49400000    4.26000000   39.84600000
 O                 13.11600000    4.53900000   41.10900000
 H                 14.07036505    4.51659667   41.00758278
 H                 14.11005423    4.19937042   30.69728710
 H                 12.86067050    7.00428223   33.57748443
 H                 11.56101260    6.53958301   32.53132476
 H                 14.05391704    4.93187009   32.91723308
 H                 11.41570797    4.25690361   31.63312630
 H                 13.76441799    2.61567475   32.44627702
 H                 11.07106223    2.52219869   33.74058183
 H                 13.85020316    3.38682872   34.62392899
 H                 14.09407409    1.75168316   37.36803909
 H                 13.32655858    0.87976602   38.66524462
 H                 11.34901123    2.55571061   38.33351771
 H                 13.76229747    3.79327133   37.02079803
 H                 11.20576324    5.20174190   37.56292730
 H                 13.89858009    5.50441932   38.84424898
 H                 11.43501417    4.15264813   39.95519974

 1 2 1.0 31 1.0
 2 3 1.0 12 1.0 35 1.0
 3 4 1.0 6 1.0 36 1.0
 4 5 1.0
 5
 6 7 1.0 14 1.0 37 1.0
 7 8 1.0
 8
 9 10 1.0 12 1.0 32 1.0 33 1.0
 10 11 1.0
 11
 12 13 1.0 34 1.0
 13 14 1.0
 14 15 1.0 38 1.0
 15 16 1.0
 16 17 1.0 26 1.0 42 1.0
 17 18 1.0 20 1.0 43 1.0
 18 19 1.0
 19
 20 21 1.0 28 1.0 44 1.0
 21 22 1.0
 22
 23 24 1.0 26 1.0 39 1.0 40 1.0
 24 25 1.0
 25
 26 27 1.0 41 1.0
 27 28 1.0
 28 29 1.0 45 1.0
 29 30 1.0
 30
 31
 32
 33
 34
 35
 36
 37
 38
 39
 40
 41
 42
 43
 44
 45

