#p geom=connectivity and charge check here keywords multiplicity. ut

10000.pdb

0 1
 O                 16.57300000   24.97400000   28.21300000
 C                 16.14300000   24.57000000   29.52100000
 C                 16.78000000   23.26200000   29.96100000
 O                 16.46000000   22.15600000   29.10400000
 H                 16.32300000   22.47700000   28.16700000
 C                 16.45200000   22.86200000   31.39000000
 O                 17.14900000   21.73100000   31.93300000
 H                 16.60100000   21.39800000   32.70100000
 C                 16.00500000   27.02000000   30.16400000
 O                 16.56100000   27.59500000   28.97300000
 H                 16.48800000   28.58500000   29.09300000
 C                 16.53700000   25.64200000   30.52400000
 O                 16.00300000   25.20800000   31.78300000
 C                 16.62500000   24.03900000   32.33500000
 O                 15.75400000   23.91700000   33.46900000
 C                 16.35900000   24.21200000   34.73600000
 C                 15.86600000   25.57800000   35.18400000
 O                 15.80500000   26.56300000   34.14200000
 H                 15.74400000   26.12500000   33.24500000
 C                 16.39600000   25.86400000   36.57900000
 O                 15.83000000   27.12400000   36.97000000
 H                 16.29500000   27.38000000   37.81800000
 C                 16.42000000   21.80400000   35.51600000
 O                 16.00100000   21.02200000   34.38800000
 H                 16.05700000   20.02900000   34.49400000
 C                 15.95000000   23.21900000   35.81200000
 O                 16.53100000   23.46300000   37.10100000
 C                 16.09100000   24.74800000   37.56500000
 O                 16.78500000   25.01000000   38.79300000
 H                 17.73194867   24.97708199   38.63871253
 H                 17.53239546   24.98405271   28.18045310
 H                 16.20492713   27.68122266   30.98113753
 H                 17.60404137   25.68464060   30.59111549
 H                 15.07859577   24.46072920   29.52287576
 H                 17.83975453   23.40082905   29.91053395
 H                 15.41211636   22.61016767   31.40106728
 H                 17.64382327   24.20861406   32.61451783
 H                 14.94471353   26.94859661   30.03912347
 H                 16.17938886   21.22499200   36.38303865
 H                 17.48757096   21.85210742   35.46235376
 H                 14.88384466   23.22195811   35.90257619
 H                 17.42436139   24.22397303   34.63719843
 H                 14.82764545   25.40275421   35.37375968
 H                 17.45835685   25.97657262   36.51878924
 H                 15.03786805   24.71684186   37.75166082

 1 2 1.0 31 1.0
 2 3 1.0 12 1.0 34 1.0
 3 4 1.0 6 1.0 35 1.0
 4 5 1.0
 5
 6 7 1.0 14 1.0 36 1.0
 7 8 1.0
 8
 9 10 1.0 12 1.0 32 1.0 38 1.0
 10 11 1.0
 11
 12 13 1.0 33 1.0
 13 14 1.0
 14 15 1.0 37 1.0
 15 16 1.0
 16 17 1.0 26 1.0 42 1.0
 17 18 1.0 20 1.0 43 1.0
 18 19 1.0
 19
 20 21 1.0 28 1.0 44 1.0
 21 22 1.0
 22
 23 24 1.0 26 1.0 39 1.0 40 1.0
 24 25 1.0
 25
 26 27 1.0 41 1.0
 27 28 1.0
 28 29 1.0 45 1.0
 29 30 1.0
 30
 31
 32
 33
 34
 35
 36
 37
 38
 39
 40
 41
 42
 43
 44
 45

