# freq=raman b3lyp/6-31+g(2d,p) geom=connectivity

493 5855/5855.com

0 1
O           7.72100         7.79700        12.23100
C           8.39700         8.13500        13.45100
C           7.74100         9.38100        14.02400
O           7.89700        10.48700        13.12400
H           7.34900        10.38600        12.29400
C           8.39800         9.71500        15.35400
O           7.94300        10.97100        15.87800
H           8.27600        11.10100        16.81200
C           8.62600         5.64200        14.12500
O           7.85400         4.94500        13.13700
H           7.79100         3.96800        13.34100
C           8.29300         7.06900        14.52900
O           8.88500         7.40300        15.79300
C           8.32500         8.59000        16.37300
O           9.07700         8.77700        17.58000
C           8.43700         8.32000        18.78100
C           9.01600         6.95500        19.11400
O           8.57900         6.00600        18.13000
H           9.05700         6.19900        17.27400
C           8.57600         6.59800        20.52400
O           8.92200         5.33700        21.11700
H           8.67600         5.23400        22.08100
C           8.17600        10.69000        19.58800
O           8.47700        11.47300        18.42400
H           8.36600        12.42300        18.71600
C           8.78500         9.32500        19.86700
O           8.28900         8.95400        21.16200
C           8.84200         7.68800        21.54900
O           8.14400         7.43200        22.77600

