## freq=raman b3lyp/6-31+g(d,p)

450K 6000ps Cellobiose Unit 1

0 1
O(PDBName=O1,ResName=GLC,ResNum=6)                    9.78300000    7.91700000   32.40300000
C(PDBName=C4,ResName=GLC,ResNum=7)                   10.63100000    7.84500000   33.55800000
C(PDBName=C3,ResName=GLC,ResNum=7)                   10.87700000    9.18000000   34.24000000
O(PDBName=O3,ResName=GLC,ResNum=7)                   11.41200000   10.22600000   33.41600000
H(PDBName=HO3,ResName=GLC,ResNum=7)                  10.87300000   10.10300000   32.58300000
C(PDBName=C2,ResName=GLC,ResNum=7)                   11.68700000    9.12600000   35.52600000
O(PDBName=O2,ResName=GLC,ResNum=7)                   11.95500000   10.40200000   36.12500000
H(PDBName=HO2,ResName=GLC,ResNum=7)                  12.62900000   10.93600000   35.61500000
C(PDBName=C6,ResName=GLC,ResNum=7)                   10.08700000    5.38500000   34.14300000
O(PDBName=O6,ResName=GLC,ResNum=7)                    9.37300000    4.62800000   35.13000000
H(PDBName=HO6,ResName=GLC,ResNum=7)                   9.15100000    3.78800000   34.63500000
C(PDBName=C5,ResName=GLC,ResNum=7)                   10.13100000    6.83900000   34.58300000
O(PDBName=O5,ResName=GLC,ResNum=7)                   10.90000000    6.94500000   35.79000000
C(PDBName=C1,ResName=GLC,ResNum=7)                   10.97000000    8.19500000   36.49100000
O(PDBName=O1,ResName=GLC,ResNum=7)                   11.75800000    7.96600000   37.66800000
C(PDBName=C4,ResName=GLC,ResNum=8)                   11.08400000    8.01400000   38.93500000
C(PDBName=C3,ResName=GLC,ResNum=8)                   10.50000000    6.68100000   39.37300000
O(PDBName=O3,ResName=GLC,ResNum=8)                    9.80900000    5.89800000   38.38800000
H(PDBName=HO3,ResName=GLC,ResNum=8)                  10.30900000    5.71900000   37.54100000
C(PDBName=C2,ResName=GLC,ResNum=8)                    9.61200000    6.77500000   40.60300000
O(PDBName=O2,ResName=GLC,ResNum=8)                    9.09200000    5.45200000   40.79900000
H(PDBName=HO2,ResName=GLC,ResNum=8)                   8.72500000    5.33600000   39.87600000
C(PDBName=C6,ResName=GLC,ResNum=8)                   12.53300000    9.73100000   39.97600000
O(PDBName=O6,ResName=GLC,ResNum=8)                   11.83700000   10.98500000   39.93800000
H(PDBName=HO6,ResName=GLC,ResNum=8)                  12.29400000   11.62800000   39.32200000
C(PDBName=C5,ResName=GLC,ResNum=8)                   11.97800000    8.32400000   40.12400000
O(PDBName=O5,ResName=GLC,ResNum=8)                   11.32900000    8.21500000   41.39900000
C(PDBName=C1,ResName=GLC,ResNum=8)                   10.57900000    7.04200000   41.74500000
O(PDBName=O1,ResName=GLC,ResNum=8)                    9.91500000    7.35300000   42.97900000
H                                                    10.32392528    7.96634391   31.61144140
H                                                    10.56940579    7.52465320   43.66009342

