# freq=raman b3lyp/6-31+g(2d,p) geom=connectivity

290 6140/6140.com

0 1
O           7.68700         7.58600        12.25600
C           8.31900         7.97200        13.48400
C           7.70500         9.27700        13.96400
O           7.71800        10.33600        12.99500
H           7.60400         9.87500        12.11500
C           8.12300         9.65700        15.37500
O           7.50300        10.87200        15.82200
H           7.82000        11.12400        16.73700
C           8.54200         5.47000        14.18300
O           8.15800         4.78400        12.98200
H           8.15400         3.81400        13.22500
C           7.99500         6.85900        14.46800
O           8.42800         7.25600        15.77800
C           7.87400         8.47400        16.29700
O           8.63200         8.73400        17.48700
C           8.14200         8.30900        18.76600
C           8.74100         6.97200        19.17000
O           8.59200         6.01600        18.11000
H           8.78100         6.57600        17.30400
C           8.17500         6.65700        20.54500
O           8.89700         5.53300        21.07100
H           8.63000         5.38800        22.02400
C           7.94000        10.78300        19.44700
O           8.60000        11.44000        18.35500
H           8.48900        12.42100        18.51500
C           8.38200         9.37800        19.82100
O           7.73900         9.03100        21.05600
C           8.36600         7.82000        21.50500
O           7.69000         7.47500        22.72300

