# freq=raman b3lyp/6-31+g(d,p) geom=connectivity

450 8000.com

0 1
 O                 10.35300000    7.88900000   21.87400000
 C                 11.13600000    7.86900000   23.07600000
 C                 11.54600000    9.21400000   23.65400000
 O                 12.34900000    9.84600000   22.64600000
 H                 11.91800000    9.58800000   21.78100000
 C                 12.05600000    9.29800000   25.08300000
 O                 11.60400000   10.52400000   25.67400000
 H                 11.60900000   11.34300000   25.10000000
 C                 10.43400000    5.46900000   23.63300000
 O                  9.77100000    4.73000000   24.66900000
 H                  9.91500000    3.75000000   24.53000000
 C                 10.60700000    6.89900000   24.12000000
 O                 11.35900000    6.88500000   25.34200000
 C                 11.41800000    8.19800000   25.91700000
 O                 12.27000000    7.86900000   27.02400000
 C                 11.60900000    7.97600000   28.29300000
 C                 10.90800000    6.70400000   28.74200000
 O                  9.81200000    6.45600000   27.84900000
 H                 10.14200000    6.12300000   26.96500000
 C                 10.34300000    6.81600000   30.14800000
 O                  9.68200000    5.60700000   30.55000000
 H                  8.92000000    5.48800000   29.91400000
 C                 13.42000000    9.61000000   28.88200000
 O                 12.55000000   10.73300000   28.68000000
 H                 12.05200000   10.54700000   27.83300000
 C                 12.63600000    8.38900000   29.33400000
 O                 12.02900000    8.44100000   30.63400000
 C                 11.43800000    7.22600000   31.11900000
 O                 10.72200000    7.55000000   32.32000000
 H                 11.34679898    7.73983955   33.02369537
 H                 10.93676752    7.90167899   21.11199296
 H                 11.39181851    5.03529159   23.43455425
 H                  9.83980988    5.45849617   22.74320914
 H                  9.62809111    7.24700540   24.37598757
 H                 12.06315863    7.43350590   22.76677232
 H                 10.63979450    9.78264460   23.67230053
 H                 13.12340768    9.23014150   25.11359525
 H                 10.45231003    8.49937369   26.26559256
 H                 14.14572322    9.85757657   29.62827854
 H                 13.92221346    9.38511869   27.96433446
 H                 13.34671623    7.59037940   29.37858227
 H                 10.87559322    8.75181959   28.22145662
 H                 11.59490818    5.88474613   28.69863816
 H                  9.61046323    7.59589040   30.14019977
 H                 12.15963731    6.45079273   31.27129341

 1 2 1.0 31 1.0
 2 3 1.0 12 1.0 35 1.0
 3 4 1.0 6 1.0 36 1.0
 4 5 1.0
 5
 6 7 1.0 14 1.0 37 1.0
 7 8 1.0
 8
 9 10 1.0 12 1.0 32 1.0 33 1.0
 10 11 1.0
 11
 12 13 1.0 34 1.0
 13 14 1.0
 14 15 1.0 38 1.0
 15 16 1.0
 16 17 1.0 26 1.0 42 1.0
 17 18 1.0 20 1.0 43 1.0
 18 19 1.0
 19
 20 21 1.0 28 1.0 44 1.0
 21 22 1.0
 22
 23 24 1.0 26 1.0 39 1.0 40 1.0
 24 25 1.0
 25
 26 27 1.0 41 1.0
 27 28 1.0
 28 29 1.0 45 1.0
 29 30 1.0
 30
 31
 32
 33
 34
 35
 36
 37
 38
 39
 40
 41
 42
 43
 44
 45

