# freq=raman b3lyp/6-31+g(2d,p) geom=connectivity

493 5743/5743.com

0 1
O           7.71300         7.59700        12.04500
C           8.14400         8.08800        13.32200
C           7.60200         9.41300        13.83400
O           7.94500        10.42600        12.87700
H           7.67100        10.01600        12.00700
C           8.15300         9.81500        15.19200
O           7.42200        10.98300        15.59400
H           7.40500        11.06500        16.59000
C           8.73400         5.71500        14.17500
O           8.44900         4.94900        12.99500
H           8.60100         3.99400        13.24900
C           7.98000         7.01700        14.38800
O           8.52400         7.49100        15.62900
C           7.97200         8.68800        16.19500
O           8.72100         8.88300        17.40400
C           8.06200         8.55400        18.63500
C           8.65000         7.24200        19.12800
O           8.21800         6.20400        18.23500
H           8.39000         6.62700        17.34600
C           8.26300         6.73900        20.50900
O           8.98400         5.61800        21.04200
H           8.81100         5.48100        22.01800
C           7.52400        10.89500        19.48400
O           7.88000        11.70100        18.35200
H           7.78300        12.67900        18.53500
C           8.26100         9.58900        19.73100
O           7.71600         9.08500        20.95900
C           8.27200         7.88200        21.51000
O           7.44100         7.54800        22.63100

