# freq=raman b3lyp/6-31+g(2d,p) geom=connectivity

493 5743/5743.com

0 1
 O                  7.71300000    7.59700000   12.04500000
 C                  8.14400000    8.08800000   13.32200000
 C                  7.60200000    9.41300000   13.83400000
 O                  7.94500000   10.42600000   12.87700000
 H                  7.67100000   10.01600000   12.00700000
 C                  8.15300000    9.81500000   15.19200000
 O                  7.42200000   10.98300000   15.59400000
 H                  7.40500000   11.06500000   16.59000000
 C                  8.73400000    5.71500000   14.17500000
 O                  8.44900000    4.94900000   12.99500000
 H                  8.60100000    3.99400000   13.24900000
 C                  7.98000000    7.01700000   14.38800000
 O                  8.52400000    7.49100000   15.62900000
 C                  7.97200000    8.68800000   16.19500000
 O                  8.72100000    8.88300000   17.40400000
 C                  8.06200000    8.55400000   18.63500000
 C                  8.65000000    7.24200000   19.12800000
 O                  8.21800000    6.20400000   18.23500000
 H                  8.39000000    6.62700000   17.34600000
 C                  8.26300000    6.73900000   20.50900000
 O                  8.98400000    5.61800000   21.04200000
 H                  8.81100000    5.48100000   22.01800000
 C                  7.52400000   10.89500000   19.48400000
 O                  7.88000000   11.70100000   18.35200000
 H                  7.78300000   12.67900000   18.53500000
 C                  8.26100000    9.58900000   19.73100000
 O                  7.71600000    9.08500000   20.95900000
 C                  8.27200000    7.88200000   21.51000000
 O                  7.44100000    7.54800000   22.63100000
 H                  7.99351643    7.32383012   23.38337854
 H                  9.27244539    8.06461274   21.84265840
 H                  7.24460770    6.42056280   20.42915714
 H                  9.71669223    7.31092713   19.07986756
 H                  7.01516862    8.42717010   18.45345594
 H                  9.30567519    9.78417855   19.85533455
 H                  7.64685631   11.50045917   20.35762779
 H                  6.48353562   10.66185637   19.39468078
 H                  8.48012344    7.38986570   11.50628207
 H                  8.54263095    5.08853840   15.02106368
 H                  9.77910378    5.94432996   14.16688479
 H                  6.93922794    6.80471203   14.51694705
 H                  9.19899140    8.23651831   13.22282609
 H                  6.53609704    9.34701597   13.90030980
 H                  9.19213902   10.05388041   15.10241068
 H                  6.93462850    8.54950657   16.41766553

 1 2 1.0 38 1.0
 2 3 1.0 12 1.0 42 1.0
 3 4 1.0 6 1.0 43 1.0
 4 5 1.0
 5
 6 7 1.0 14 1.0 44 1.0
 7 8 1.0
 8
 9 10 1.0 12 1.0 39 1.0 40 1.0
 10 11 1.0
 11
 12 13 1.0 41 1.0
 13 14 1.0
 14 15 1.0 45 1.0
 15 16 1.0
 16 17 1.0 26 1.0 34 1.0
 17 18 1.0 20 1.0 33 1.0
 18 19 1.0
 19
 20 21 1.0 28 1.0 32 1.0
 21 22 1.0
 22
 23 24 1.0 26 1.0 36 1.0 37 1.0
 24 25 1.0
 25
 26 27 1.0 35 1.0
 27 28 1.0
 28 29 1.0 31 1.0
 29 30 1.0
 30
 31
 32
 33
 34
 35
 36
 37
 38
 39
 40
 41
 42
 43
 44
 45

