# freq=raman b3lyp/6-31+g(2d,p) geom=connectivity

320 5029/5029.com

0 1
 O                  7.43600000    7.55600000   12.47100000
 C                  8.12100000    7.92100000   13.67800000
 C                  7.61300000    9.29100000   14.09800000
 O                  7.93900000   10.31400000   13.14600000
 H                  7.82400000    9.90600000   12.24000000
 C                  8.23000000    9.62900000   15.44600000
 O                  7.67900000   10.85000000   15.95900000
 H                  7.91700000   11.06300000   16.90600000
 C                  8.31500000    5.50400000   14.51000000
 O                  7.65400000    4.85800000   13.41200000
 H                  7.63300000    3.86300000   13.51100000
 C                  7.79500000    6.90900000   14.76400000
 O                  8.40000000    7.29600000   16.00700000
 C                  7.93500000    8.56400000   16.49000000
 O                  8.78700000    8.79800000   17.62100000
 C                  8.24400000    8.40000000   18.88800000
 C                  8.84200000    7.09800000   19.39400000
 O                  8.37000000    6.04300000   18.54300000
 H                  8.43400000    6.45500000   17.63300000
 C                  8.36100000    6.80300000   20.80600000
 O                  8.95900000    5.65300000   21.42200000
 H                  8.40400000    5.25000000   22.14900000
 C                  7.76200000   10.82600000   19.66300000
 O                  8.12500000   11.52500000   18.46400000
 H                  8.26500000   12.48700000   18.70200000
 C                  8.44600000    9.49400000   19.92400000
 O                  8.03800000    9.24000000   21.27600000
 C                  8.58600000    7.99200000   21.72500000
 O                  7.84600000    7.75800000   22.93200000
 H                  8.45645060    7.61698571   23.65936857
 H                  8.07857385    7.34955015   11.78830145
 H                  9.36263808    5.55694053   14.29892714
 H                  8.16977410    4.91763363   15.39316698
 H                  6.73346448    6.86820667   14.89197747
 H                  9.17691937    7.95430025   13.50821965
 H                  6.54940034    9.24658459   14.20608806
 H                  9.28898239    9.73532683   15.33576884
 H                  6.90079255    8.53727663   16.76313148
 H                  7.96931006   11.46900532   20.49273894
 H                  6.70656939   10.65237448   19.63435710
 H                  9.49790236    9.68795757   19.95196218
 H                  7.19144934    8.25302964   18.76375501
 H                  9.91063632    7.14533906   19.36801096
 H                  7.30650576    6.62874915   20.75522073
 H                  9.62747234    8.10106912   21.94486200

 1 2 1.0 31 1.0
 2 3 1.0 12 1.0 35 1.0
 3 4 1.0 6 1.0 36 1.0
 4 5 1.0
 5
 6 7 1.0 14 1.0 37 1.0
 7 8 1.0
 8
 9 10 1.0 12 1.0 32 1.0 33 1.0
 10 11 1.0
 11
 12 13 1.0 34 1.0
 13 14 1.0
 14 15 1.0 38 1.0
 15 16 1.0
 16 17 1.0 26 1.0 42 1.0
 17 18 1.0 20 1.0 43 1.0
 18 19 1.0
 19
 20 21 1.0 28 1.0 44 1.0
 21 22 1.0
 22
 23 24 1.0 26 1.0 39 1.0 40 1.0
 24 25 1.0
 25
 26 27 1.0 41 1.0
 27 28 1.0
 28 29 1.0 45 1.0
 29 30 1.0
 30
 31
 32
 33
 34
 35
 36
 37
 38
 39
 40
 41
 42
 43
 44
 45

