# freq=raman b3lyp/6-31+g(2d,p) geom=connectivity

290 9560/9560.com

0 1
 O                  7.39300000    7.63200000   12.22800000
 C                  8.16500000    7.90100000   13.40800000
 C                  7.52800000    9.13600000   14.02400000
 O                  7.44000000   10.16200000   13.02500000
 H                  7.02300000    9.78300000   12.19900000
 C                  8.17600000    9.61800000   15.31200000
 O                  7.57300000   10.75900000   15.93900000
 H                  7.84700000   10.73600000   16.90100000
 C                  8.62500000    5.45100000   14.02900000
 O                  8.22900000    4.73500000   12.85000000
 H                  8.46700000    3.76600000   12.90600000
 C                  8.02000000    6.78600000   14.43100000
 O                  8.64400000    7.23200000   15.64400000
 C                  8.12600000    8.42500000   16.25200000
 O                  8.89200000    8.69700000   17.43400000
 C                  8.36300000    8.22600000   18.68200000
 C                  8.92800000    6.91400000   19.20000000
 O                  8.83200000    5.81400000   18.28400000
 H                  9.05000000    6.18300000   17.38000000
 C                  8.31600000    6.51900000   20.53400000
 O                  9.01300000    5.42400000   21.14500000
 H                  8.42800000    5.09200000   21.88600000
 C                  8.04100000   10.67900000   19.47400000
 O                  8.48300000   11.45700000   18.35200000
 H                  8.34600000   12.43300000   18.52100000
 C                  8.54000000    9.27400000   19.76800000
 O                  7.79200000    8.83200000   20.91100000
 C                  8.37200000    7.67200000   21.52300000
 O                  7.47400000    7.38200000   22.60400000
 H                  7.97969587    7.17056519   23.39214149
 H                  8.25056784   11.26202569   20.34638888
 H                  6.97637775   10.60981540   19.39218957
 H                  9.57586238    9.32482506   20.03126022
 H                  7.31138201    8.08435701   18.54438875
 H                  9.97078947    7.07792424   19.37498273
 H                  7.29447471    6.24025487   20.38009341
 H                  9.36731834    7.85772628   21.86904501
 H                  7.98398344    7.46385057   11.49039283
 H                  8.46921757    4.78704594   14.85349793
 H                  9.68021900    5.60856518   13.94784540
 H                  6.97755469    6.63841287   14.62185546
 H                  9.19279969    8.07620602   13.16751996
 H                  6.52314240    8.86680280   14.27438783
 H                  9.20119113    9.84759948   15.10910293
 H                  7.10829636    8.25270622   16.53394708

 1 2 1.0 38 1.0
 2 3 1.0 12 1.0 42 1.0
 3 4 1.0 6 1.0 43 1.0
 4 5 1.0
 5
 6 7 1.0 14 1.0 44 1.0
 7 8 1.0
 8
 9 10 1.0 12 1.0 39 1.0 40 1.0
 10 11 1.0
 11
 12 13 1.0 41 1.0
 13 14 1.0
 14 15 1.0 45 1.0
 15 16 1.0
 16 17 1.0 26 1.0 34 1.0
 17 18 1.0 20 1.0 35 1.0
 18 19 1.0
 19
 20 21 1.0 28 1.0 36 1.0
 21 22 1.0
 22
 23 24 1.0 26 1.0 31 1.0 32 1.0
 24 25 1.0
 25
 26 27 1.0 33 1.0
 27 28 1.0
 28 29 1.0 37 1.0
 29 30 1.0
 30
 31
 32
 33
 34
 35
 36
 37
 38
 39
 40
 41
 42
 43
 44
 45

