# freq=raman b3lyp/6-31+g(2d,p) geom=connectivity

290 9560/9560.com

0 1
O           7.39300         7.63200        12.22800
C           8.16500         7.90100        13.40800
C           7.52800         9.13600        14.02400
O           7.44000        10.16200        13.02500
H           7.02300         9.78300        12.19900
C           8.17600         9.61800        15.31200
O           7.57300        10.75900        15.93900
H           7.84700        10.73600        16.90100
C           8.62500         5.45100        14.02900
O           8.22900         4.73500        12.85000
H           8.46700         3.76600        12.90600
C           8.02000         6.78600        14.43100
O           8.64400         7.23200        15.64400
C           8.12600         8.42500        16.25200
O           8.89200         8.69700        17.43400
C           8.36300         8.22600        18.68200
C           8.92800         6.91400        19.20000
O           8.83200         5.81400        18.28400
H           9.05000         6.18300        17.38000
C           8.31600         6.51900        20.53400
O           9.01300         5.42400        21.14500
H           8.42800         5.09200        21.88600
C           8.04100        10.67900        19.47400
O           8.48300        11.45700        18.35200
H           8.34600        12.43300        18.52100
C           8.54000         9.27400        19.76800
O           7.79200         8.83200        20.91100
C           8.37200         7.67200        21.52300
O           7.47400         7.38200        22.60400

