# freq=raman b3lyp/6-31+g(2d,p) geom=connectivity

473 5000.com

0 1
C           8.21300         7.86800        24.15900
C           7.79700         9.25300        24.62600
O           8.24300        10.20800        23.65200
H           7.90400         9.73400        22.83900
C           8.31900         9.62200        26.00500
O           7.72600        10.82000        26.52700
H           7.96800        10.85500        27.49600
C           7.94900         5.36700        24.93600
O           7.51700         4.83000        23.67800
H           7.54200         3.83500        23.78100
C           7.82600         6.85500        25.22400
O           8.52500         7.30600        26.39300
C           7.95100         8.49500        26.95500
O           8.52800         8.78100        28.23800
C           8.01200         8.44300        29.53300
C           8.54300         7.08400        29.96000
O           8.13500         6.09500        29.00400
H           8.43300         6.37100        28.09000
C           8.01100         6.71400        31.33500
O           8.68100         5.51400        31.74600
H           8.58300         5.24700        32.70400
C           8.14400        10.93000        30.25600
O           8.38200        11.41400        28.92600
H           8.49200        12.40800        28.92900
C           8.43400         9.47100        30.56900
O           7.85900         9.07100        31.82100
C           8.33200         7.81500        32.33200
O           7.56900         7.63600        33.53400
C           8.11700         8.06000        34.79100

