# freq=raman b3lyp/6-31+g(d,p) geom=connectivity

280 10000.com

0 1
O           7.55300         7.51600        22.81900
C           8.20200         7.94300        24.02500
C           7.62700         9.23800        24.57500
O           7.72200        10.32700        23.64500
H           7.67700        10.05000        22.68500
C           8.29300         9.60900        25.89000
O           7.66400        10.76400        26.46600
H           8.03600        10.81300        27.39300
C           8.54700         5.54300        24.69300
O           7.84600         4.77300        23.70600
H           8.09400         3.82000        23.88000
C           7.93200         6.88000        25.07700
O           8.54700         7.14400        26.34700
C           8.25100         8.44700        26.86900
O           9.05500         8.67600        28.03600
C           8.30000         8.31200        29.20000
C           8.75700         6.98500        29.78500
O           8.68500         5.97500        28.76900
H           8.70800         6.47400        27.90300
C           8.23200         6.61200        31.16200
O           8.68200         5.28500        31.47300
H           8.36500         5.06000        32.39400
C           8.22000        10.72000        29.96800
O           8.67100        11.51700        28.86300
H           8.43900        12.46600        29.07400
C           8.71100         9.31300        30.26800
O           8.06200         8.98000        31.50300
C           8.55000         7.76800        32.09700
O           7.71600         7.47700        33.22800

