# freq=raman b3lyp/6-31+g(d,p) geom=connectivity

280 10000.com

0 1
 O                  7.55300000    7.51600000   22.81900000
 C                  8.20200000    7.94300000   24.02500000
 C                  7.62700000    9.23800000   24.57500000
 O                  7.72200000   10.32700000   23.64500000
 H                  7.67700000   10.05000000   22.68500000
 C                  8.29300000    9.60900000   25.89000000
 O                  7.66400000   10.76400000   26.46600000
 H                  8.03600000   10.81300000   27.39300000
 C                  8.54700000    5.54300000   24.69300000
 O                  7.84600000    4.77300000   23.70600000
 H                  8.09400000    3.82000000   23.88000000
 C                  7.93200000    6.88000000   25.07700000
 O                  8.54700000    7.14400000   26.34700000
 C                  8.25100000    8.44700000   26.86900000
 O                  9.05500000    8.67600000   28.03600000
 C                  8.30000000    8.31200000   29.20000000
 C                  8.75700000    6.98500000   29.78500000
 O                  8.68500000    5.97500000   28.76900000
 H                  8.70800000    6.47400000   27.90300000
 C                  8.23200000    6.61200000   31.16200000
 O                  8.68200000    5.28500000   31.47300000
 H                  8.36500000    5.06000000   32.39400000
 C                  8.22000000   10.72000000   29.96800000
 O                  8.67100000   11.51700000   28.86300000
 H                  8.43900000   12.46600000   29.07400000
 C                  8.71100000    9.31300000   30.26800000
 O                  8.06200000    8.98000000   31.50300000
 C                  8.55000000    7.76800000   32.09700000
 O                  7.71600000    7.47700000   33.22800000
 H                  8.21540848    7.28408700   22.16399514
 H                  8.26658656    7.28104118   33.98961314
 H                  8.41265085   11.29637132   30.84867119
 H                  7.15688972   10.64936516   29.86947464
 H                  9.77354528    9.30875961   30.39401405
 H                  7.24539343    8.33145150   29.02020394
 H                  9.80653154    7.11933740   29.94417602
 H                  7.16568544    6.56317803   31.08790761
 H                  9.58776023    7.81818093   32.35280378
 H                  8.62601073    4.94932255   25.57968167
 H                  9.53532997    5.72743093   24.32681821
 H                  6.87625207    6.76451382   25.20722766
 H                  9.25490580    8.04412780   23.86356100
 H                  6.58872231    9.07189569   24.77321401
 H                  9.31756547    9.84650223   25.69312877
 H                  7.23939978    8.39833183   27.21424832

 1 2 1.0 30 1.0
 2 3 1.0 12 1.0 42 1.0
 3 4 1.0 6 1.0 43 1.0
 4 5 1.0
 5
 6 7 1.0 14 1.0 44 1.0
 7 8 1.0
 8
 9 10 1.0 12 1.0 39 1.0 40 1.0
 10 11 1.0
 11
 12 13 1.0 41 1.0
 13 14 1.0
 14 15 1.0 45 1.0
 15 16 1.0
 16 17 1.0 26 1.0 35 1.0
 17 18 1.0 20 1.0 36 1.0
 18 19 1.0
 19
 20 21 1.0 28 1.0 37 1.0
 21 22 1.0
 22
 23 24 1.0 26 1.0 32 1.0 33 1.0
 24 25 1.0
 25
 26 27 1.0 34 1.0
 27 28 1.0
 28 29 1.0 38 1.0
 29 31 1.0
 30
 31
 32
 33
 34
 35
 36
 37
 38
 39
 40
 41
 42
 43
 44
 45

