# freq=raman b3lyp/6-31+g(2d,p) geom=connectivity

400 6736/6736.com

0 1
 O                  9.06100000    7.57100000   12.40500000
 C                  9.68500000    7.80800000   13.67500000
 C                  9.20700000    9.15900000   14.18300000
 O                  9.47700000   10.14700000   13.17800000
 H                  9.27800000    9.73100000   12.29000000
 C                  9.81800000    9.56500000   15.51400000
 O                  9.54500000   10.80800000   16.17700000
 H                 10.07700000   10.90200000   17.01900000
 C                  9.61900000    5.31300000   14.23000000
 O                  8.79400000    4.77800000   13.18500000
 H                  8.66700000    3.78800000   13.24700000
 C                  9.34400000    6.73400000   14.69500000
 O                 10.10300000    7.17300000   15.83100000
 C                  9.70400000    8.39200000   16.47500000
 O                 10.55700000    8.44300000   17.62700000
 C                  9.89800000    8.35700000   18.89900000
 C                 10.18100000    6.95500000   19.41400000
 O                 10.13100000    5.89400000   18.44900000
 H                 10.46600000    6.26800000   17.58500000
 C                  9.30700000    6.67300000   20.62600000
 O                  9.40400000    5.29700000   21.02000000
 H                  8.84900000    5.12000000   21.83300000
 C                 10.13300000   10.81300000   19.60600000
 O                 10.55400000   11.44000000   18.38600000
 H                 10.32600000   12.41300000   18.37300000
 C                 10.41000000    9.35300000   19.92600000
 O                  9.72100000    8.98400000   21.13000000
 C                  9.78700000    7.65900000   21.67800000
 O                  8.74000000    7.67100000   22.66000000
 H                  9.12580916    7.68174131   23.53899711
 H                 10.55968352   11.38451878   20.40362614
 H                  9.07197467   10.93962553   19.66159868
 H                 11.46206348    9.21316016   20.06204133
 H                  8.84394307    8.48565477   18.76742513
 H                 11.18856068    6.97340126   19.77369829
 H                  8.28909801    6.89347207   20.38070916
 H                 10.74523635    7.41467237   22.08664057
 H                  9.73683296    7.44592586   11.73477148
 H                  9.52556040    4.66924762   15.07955983
 H                 10.63460979    5.27124584   13.89579447
 H                  8.30384831    6.81262051   14.93333439
 H                 10.74629277    7.83965974   13.54250354
 H                  8.14640164    9.10366402   14.31326534
 H                 10.86391920    9.62782488   15.29719118
 H                  8.68742996    8.30167105   16.79644367

 1 2 1.0 38 1.0
 2 3 1.0 12 1.0 42 1.0
 3 4 1.0 6 1.0 43 1.0
 4 5 1.0
 5
 6 7 1.0 14 1.0 44 1.0
 7 8 1.0
 8
 9 10 1.0 12 1.0 39 1.0 40 1.0
 10 11 1.0
 11
 12 13 1.0 41 1.0
 13 14 1.0
 14 15 1.0 45 1.0
 15 16 1.0
 16 17 1.0 26 1.0 34 1.0
 17 18 1.0 20 1.0 35 1.0
 18 19 1.0
 19
 20 21 1.0 28 1.0 36 1.0
 21 22 1.0
 22
 23 24 1.0 26 1.0 31 1.0 32 1.0
 24 25 1.0
 25
 26 27 1.0 33 1.0
 27 28 1.0
 28 29 1.0 37 1.0
 29 30 1.0
 30
 31
 32
 33
 34
 35
 36
 37
 38
 39
 40
 41
 42
 43
 44
 45

