# freq=raman b3lyp/6-31+g(2d,p) geom=connectivity

400 6736/6736.com

0 1
O           9.06100         7.57100        12.40500
C           9.68500         7.80800        13.67500
C           9.20700         9.15900        14.18300
O           9.47700        10.14700        13.17800
H           9.27800         9.73100        12.29000
C           9.81800         9.56500        15.51400
O           9.54500        10.80800        16.17700
H          10.07700        10.90200        17.01900
C           9.61900         5.31300        14.23000
O           8.79400         4.77800        13.18500
H           8.66700         3.78800        13.24700
C           9.34400         6.73400        14.69500
O          10.10300         7.17300        15.83100
C           9.70400         8.39200        16.47500
O          10.55700         8.44300        17.62700
C           9.89800         8.35700        18.89900
C          10.18100         6.95500        19.41400
O          10.13100         5.89400        18.44900
H          10.46600         6.26800        17.58500
C           9.30700         6.67300        20.62600
O           9.40400         5.29700        21.02000
H           8.84900         5.12000        21.83300
C          10.13300        10.81300        19.60600
O          10.55400        11.44000        18.38600
H          10.32600        12.41300        18.37300
C          10.41000         9.35300        19.92600
O           9.72100         8.98400        21.13000
C           9.78700         7.65900        21.67800
O           8.74000         7.67100        22.66000

