# freq=raman b3lyp/6-31+g(2d,p) geom=connectivity

280 6276/6276.com

0 1
 O                  7.74400000    7.59400000   12.25500000
 C                  8.23200000    7.91200000   13.56600000
 C                  7.81400000    9.29600000   14.03400000
 O                  7.93300000   10.25300000   12.97100000
 H                  7.68900000    9.77600000   12.12700000
 C                  8.31900000    9.70500000   15.40800000
 O                  7.97000000   10.97600000   15.97700000
 H                  8.38800000   11.11000000   16.87500000
 C                  8.51800000    5.49000000   14.28800000
 O                  8.15800000    4.79600000   13.08500000
 H                  8.24600000    3.82000000   13.28700000
 C                  7.88800000    6.84100000   14.58900000
 O                  8.37200000    7.23700000   15.88000000
 C                  7.98300000    8.54300000   16.32900000
 O                  8.84000000    8.73200000   17.46500000
 C                  8.43200000    8.40900000   18.80200000
 C                  8.83300000    7.03000000   19.30100000
 O                  8.26200000    6.11200000   18.35700000
 H                  8.39900000    6.44500000   17.42400000
 C                  8.34900000    6.70600000   20.70600000
 O                  9.01200000    5.50500000   21.12600000
 H                  8.65000000    5.36600000   22.04700000
 C                  8.21600000   10.79200000   19.57400000
 O                  8.83600000   11.64600000   18.60200000
 H                  8.45300000   12.56800000   18.65800000
 C                  8.84600000    9.43500000   19.84400000
 O                  8.32400000    9.12700000   21.14500000
 C                  8.70600000    7.84000000   21.65300000
 O                  7.94400000    7.75600000   22.86600000
 H                  8.48626474    7.45048812   11.66335196
 H                  8.54100630    7.70406330   23.61599070
 H                  8.18631234   11.32522343   20.50119546
 H                  9.91190636    9.52065565   19.88150655
 H                  7.20701765   10.62364497   19.26013506
 H                  7.36211483    8.41707133   18.78856186
 H                  9.89913551    6.94423812   19.27100039
 H                  7.28973785    6.55487920   20.70088219
 H                  9.75313729    7.82480471   21.87248259
 H                  9.38594451    9.71679049   15.32806001
 H                  6.95331051    8.56250750   16.61927401
 H                  6.82481483    6.72882458   14.63320379
 H                  8.29092455    4.84268911   15.10917316
 H                  9.57860842    5.63024096   14.26949970
 H                  9.29944072    7.92816903   13.49382746
 H                  6.75715346    9.20778499   14.17610382

 1 2 1.0 30 1.0
 2 3 1.0 12 1.0 44 1.0
 3 4 1.0 6 1.0 45 1.0
 4 5 1.0
 5
 6 7 1.0 14 1.0 39 1.0
 7 8 1.0
 8
 9 10 1.0 12 1.0 42 1.0 43 1.0
 10 11 1.0
 11
 12 13 1.0 41 1.0
 13 14 1.0
 14 15 1.0 40 1.0
 15 16 1.0
 16 17 1.0 26 1.0 35 1.0
 17 18 1.0 20 1.0 36 1.0
 18 19 1.0
 19
 20 21 1.0 28 1.0 37 1.0
 21 22 1.0
 22
 23 24 1.0 26 1.0 32 1.0 34 1.0
 24 25 1.0
 25
 26 27 1.0 33 1.0
 27 28 1.0
 28 29 1.0 38 1.0
 29 31 1.0
 30
 31
 32
 33
 34
 35
 36
 37
 38
 39
 40
 41
 42
 43
 44
 45

