# freq=raman b3lyp/6-31+g(2d,p) geom=connectivity

280 6276/6276.com

0 1
O           7.74400         7.59400        12.25500
C           8.23200         7.91200        13.56600
C           7.81400         9.29600        14.03400
O           7.93300        10.25300        12.97100
H           7.68900         9.77600        12.12700
C           8.31900         9.70500        15.40800
O           7.97000        10.97600        15.97700
H           8.38800        11.11000        16.87500
C           8.51800         5.49000        14.28800
O           8.15800         4.79600        13.08500
H           8.24600         3.82000        13.28700
C           7.88800         6.84100        14.58900
O           8.37200         7.23700        15.88000
C           7.98300         8.54300        16.32900
O           8.84000         8.73200        17.46500
C           8.43200         8.40900        18.80200
C           8.83300         7.03000        19.30100
O           8.26200         6.11200        18.35700
H           8.39900         6.44500        17.42400
C           8.34900         6.70600        20.70600
O           9.01200         5.50500        21.12600
H           8.65000         5.36600        22.04700
C           8.21600        10.79200        19.57400
O           8.83600        11.64600        18.60200
H           8.45300        12.56800        18.65800
C           8.84600         9.43500        19.84400
O           8.32400         9.12700        21.14500
C           8.70600         7.84000        21.65300
O           7.94400         7.75600        22.86600

