# freq=raman b3lyp/6-31+g(2d,p) geom=connectivity

280 5605/5605.com

0 1
 O                  7.34000000    7.55400000   12.24300000
 C                  8.00300000    7.91500000   13.46400000
 C                  7.55500000    9.25000000   14.03700000
 O                  7.47400000   10.35300000   13.12400000
 H                  7.36700000    9.93400000   12.22200000
 C                  8.20100000    9.65200000   15.35300000
 O                  7.47500000   10.73500000   15.95400000
 H                  7.96300000   10.80400000   16.82400000
 C                  8.38200000    5.52100000   14.24700000
 O                  7.82600000    4.72500000   13.19100000
 H                  8.09800000    3.80000000   13.45700000
 C                  7.73800000    6.86800000   14.53300000
 O                  8.30100000    7.24100000   15.79900000
 C                  8.03000000    8.53200000   16.36500000
 O                  8.81800000    8.66700000   17.55700000
 C                  8.19400000    8.32000000   18.80100000
 C                  8.82000000    7.06300000   19.38200000
 O                  8.43600000    6.02200000   18.47100000
 H                  8.56000000    6.41800000   17.56100000
 C                  8.25100000    6.63600000   20.72500000
 O                  8.84000000    5.45400000   21.28700000
 H                  8.52000000    5.26900000   22.21600000
 C                  7.97000000   10.68700000   19.50100000
 O                  8.51500000   11.37900000   18.36900000
 H                  8.38500000   12.35900000   18.52400000
 C                  8.48400000    9.31700000   19.91200000
 O                  8.00700000    8.98200000   21.22300000
 C                  8.49700000    7.73800000   21.74300000
 O                  7.61900000    7.43700000   22.83800000
 H                  8.13931377    7.22316296   23.61591214
 H                  7.99498916    7.35500762   11.56995377
 H                  8.09156798   11.33098534   20.34681565
 H                  6.91927431   10.58504111   19.32641507
 H                  9.54877755    9.39388592   19.98436931
 H                  7.13927031    8.19184078   18.67442794
 H                  9.88524234    7.15239869   19.42854699
 H                  7.19666433    6.48455100   20.62331669
 H                  9.52144215    7.79535805   22.04652650
 H                  8.34043083    4.94300500   15.14649641
 H                  9.41190022    5.69548792   14.01513904
 H                  6.68170428    6.73692507   14.64235592
 H                  9.05626089    7.95806719   13.28046058
 H                  6.53411571    9.07163123   14.30323271
 H                  9.23306938    9.90195883   15.22164790
 H                  7.00290496    8.53609890   16.66493161

 1 2 1.0 31 1.0
 2 3 1.0 12 1.0 42 1.0
 3 4 1.0 6 1.0 43 1.0
 4 5 1.0
 5
 6 7 1.0 14 1.0 44 1.0
 7 8 1.0
 8
 9 10 1.0 12 1.0 39 1.0 40 1.0
 10 11 1.0
 11
 12 13 1.0 41 1.0
 13 14 1.0
 14 15 1.0 45 1.0
 15 16 1.0
 16 17 1.0 26 1.0 35 1.0
 17 18 1.0 20 1.0 36 1.0
 18 19 1.0
 19
 20 21 1.0 28 1.0 37 1.0
 21 22 1.0
 22
 23 24 1.0 26 1.0 32 1.0 33 1.0
 24 25 1.0
 25
 26 27 1.0 34 1.0
 27 28 1.0
 28 29 1.0 38 1.0
 29 30 1.0
 30
 31
 32
 33
 34
 35
 36
 37
 38
 39
 40
 41
 42
 43
 44
 45

