# freq=raman b3lyp/6-31+g(2d,p) geom=connectivity

473 5710/5710.com

0 1
O           7.65200         7.71300        12.34700
C           8.38000         7.95600        13.56000
C           7.91100         9.31300        14.06000
O           8.42600        10.21900        13.07400
H           7.98600        10.00000        12.20300
C           8.41600         9.71300        15.43700
O           7.76100        10.95000        15.75400
H           8.03700        11.20600        16.68000
C           8.64600         5.49800        14.30500
O           8.03400         4.71800        13.26800
H           8.14900         3.72800        13.34700
C           8.11300         6.88900        14.60900
O           8.67400         7.34000        15.85100
C           8.12200         8.55600        16.37700
O           8.91100         8.74000        17.56200
C           8.14700         8.37000        18.71900
C           8.66700         7.01500        19.16900
O           8.45100         5.96500        18.21500
H           8.65900         6.43500        17.35700
C           8.08800         6.57400        20.50300
O           8.86700         5.47600        21.00100
H           8.56700         5.24600        21.92600
C           8.16600        10.78400        19.46100
O           8.65700        11.52200        18.33300
H           8.42600        12.47800        18.51200
C           8.54800         9.35400        19.80700
O           7.88600         9.01200        21.03300
C           8.31500         7.71700        21.47900
O           7.62000         7.45200        22.70600

