# freq=raman b3lyp/6-31+g(2d,p) geom=connectivity

473 5710/5710.com

0 1
 O                  7.65200000    7.71300000   12.34700000
 C                  8.38000000    7.95600000   13.56000000
 C                  7.91100000    9.31300000   14.06000000
 O                  8.42600000   10.21900000   13.07400000
 H                  7.98600000   10.00000000   12.20300000
 C                  8.41600000    9.71300000   15.43700000
 O                  7.76100000   10.95000000   15.75400000
 H                  8.03700000   11.20600000   16.68000000
 C                  8.64600000    5.49800000   14.30500000
 O                  8.03400000    4.71800000   13.26800000
 H                  8.14900000    3.72800000   13.34700000
 C                  8.11300000    6.88900000   14.60900000
 O                  8.67400000    7.34000000   15.85100000
 C                  8.12200000    8.55600000   16.37700000
 O                  8.91100000    8.74000000   17.56200000
 C                  8.14700000    8.37000000   18.71900000
 C                  8.66700000    7.01500000   19.16900000
 O                  8.45100000    5.96500000   18.21500000
 H                  8.65900000    6.43500000   17.35700000
 C                  8.08800000    6.57400000   20.50300000
 O                  8.86700000    5.47600000   21.00100000
 H                  8.56700000    5.24600000   21.92600000
 C                  8.16600000   10.78400000   19.46100000
 O                  8.65700000   11.52200000   18.33300000
 H                  8.42600000   12.47800000   18.51200000
 C                  8.54800000    9.35400000   19.80700000
 O                  7.88600000    9.01200000   21.03300000
 C                  8.31500000    7.71700000   21.47900000
 O                  7.62000000    7.45200000   22.70600000
 H                  8.25683495    7.30034949   23.40817047
 H                  9.36230087    7.76854176   21.69208292
 H                  7.05133222    6.32146399   20.42271631
 H                  9.72466135    7.11165191   19.29904182
 H                  7.09312344    8.36711578   18.53397063
 H                  9.60650217    9.30049284   19.95400389
 H                  8.40866298   11.36949821   20.32309427
 H                  8.58497942    4.92914947   15.20920438
 H                  9.68159833    5.60127796   14.05646476
 H                  7.05318278    6.81228122   14.73470479
 H                  8.26975775    7.56865950   11.62648548
 H                  9.42790551    7.99516104   13.34725495
 H                  6.84155747    9.34596655   14.04970966
 H                  9.47300020    9.87350598   15.39354416
 H                  7.07902848    8.46440722   16.59772873
 H                  7.09954040   10.79020829   19.37425106

 1 2 1.0 40 1.0
 2 3 1.0 12 1.0 41 1.0
 3 4 1.0 6 1.0 42 1.0
 4 5 1.0
 5
 6 7 1.0 14 1.0 43 1.0
 7 8 1.0
 8
 9 10 1.0 12 1.0 37 1.0 38 1.0
 10 11 1.0
 11
 12 13 1.0 39 1.0
 13 14 1.0
 14 15 1.0 44 1.0
 15 16 1.0
 16 17 1.0 26 1.0 34 1.0
 17 18 1.0 20 1.0 33 1.0
 18 19 1.0
 19
 20 21 1.0 28 1.0 32 1.0
 21 22 1.0
 22
 23 24 1.0 26 1.0 36 1.0 45 1.0
 24 25 1.0
 25
 26 27 1.0 35 1.0
 27 28 1.0
 28 29 1.0 31 1.0
 29 30 1.0
 30
 31
 32
 33
 34
 35
 36
 37
 38
 39
 40
 41
 42
 43
 44
 45

