# freq=raman b3lyp/6-31+g(2d,p) geom=connectivity

300 8274/8274.com

0 1
O           7.89800         7.63700        12.26800
C           8.50200         7.96000        13.52900
C           8.13400         9.32500        14.08700
O           8.33800        10.33900        13.09200
H           7.97000         9.95200        12.24700
C           8.85100         9.64700        15.38800
O           8.34600        10.81100        16.05800
H           9.10500        11.11600        16.63400
C           8.58000         5.48700        14.19900
O           7.98600         4.89300        13.03500
H           8.08600         3.90000        12.97700
C           8.25000         6.91400        14.60200
O           9.08200         7.18000        15.74100
C           8.73300         8.44800        16.31400
O           9.43900         8.54700        17.56000
C           8.60800         8.35100        18.71400
C           8.86900         6.93800        19.21000
O           8.54700         5.89200        18.28100
H           8.95100         6.11800        17.39500
C           8.29700         6.64100        20.58600
O           9.07800         5.51400        21.00900
H           8.87500         5.24400        21.95000
C           8.71600        10.83000        19.58800
O           9.38700        11.50400        18.51400
H           9.18900        12.48400        18.53800
C           8.93500         9.34300        19.81800
O           8.06400         9.01600        20.91100
C           8.52700         7.80800        21.53200
O           7.80900         7.65600        22.76600

