# freq=raman b3lyp/6-31+g(2d,p) geom=connectivity
350 10000.com
350 10000.com
C           8.31400         7.90300         2.96500
0 1
O           8.57700        10.41100        23.65000
H           8.44700         9.88300        22.81100
C           8.60500         9.82700        26.04900
O           7.96400        10.94800        26.67400
H           8.45400        10.99800        27.54500
C           8.32100         5.63100        24.96100
O           7.89900         4.97200        23.75900
H           8.01700         3.98000        23.80700
C           8.04900         7.09500        25.26800
O           8.94200         7.41500        26.34500
C           8.37100         8.60100        26.91600
O           9.21500         8.75300        28.06700
C           8.59100         8.35500        29.29600
C           9.11200         7.00100        29.75300
O           8.74500         6.00900        28.78300
H           8.99700         6.38100        27.88900
C           8.61700         6.69200        31.15700
O           9.31900         5.61000        31.78600
H           8.81700         5.36700        32.61600
C           8.45400        10.80100        30.06200
O           9.42700        11.48400        29.25800
H           9.27900        12.47200        29.28800
C           8.81600         9.36600        30.40900
O           8.12100         8.93700        31.58900
C           8.75100         7.79700        32.19200
O           8.01900         7.64900        33.41700
C           8.60500         7.93700        34.69500
C           8.09700         9.32000        35.06700
O           8.78300        10.20800        34.17200

