# freq=raman b3lyp/6-31+g(2d,p) geom=connectivity

423 6395/6395.com

0 1
 O                  7.66000000    7.46900000   12.31200000
 C                  8.10900000    7.97400000   13.57700000
 C                  7.33800000    9.17600000   14.09800000
 O                  7.44900000   10.22700000   13.12700000
 H                  7.52100000    9.84000000   12.20800000
 C                  8.01100000    9.64500000   15.37700000
 O                  7.35200000   10.77000000   15.97800000
 H                  7.89600000   10.99500000   16.78600000
 C                  8.90300000    5.63300000   14.23700000
 O                  8.32600000    4.76500000   13.25100000
 H                  8.67500000    3.83800000   13.38700000
 C                  8.10900000    6.87100000   14.62200000
 O                  8.72600000    7.42200000   15.79400000
 C                  8.09200000    8.54400000   16.42300000
 O                  8.91800000    8.80100000   17.56700000
 C                  8.31800000    8.39700000   18.80700000
 C                  8.94900000    7.10200000   19.28900000
 O                  8.98800000    6.06600000   18.29700000
 H                  9.04100000    6.46200000   17.38100000
 C                  8.45100000    6.58900000   20.63100000
 O                  9.05900000    5.40400000   21.16400000
 H                  8.56900000    5.15200000   21.99900000
 C                  7.80700000   10.71800000   19.61000000
 O                  8.10900000   11.49400000   18.44100000
 H                  7.92700000   12.45500000   18.64800000
 C                  8.47700000    9.39500000   19.94300000
 O                  8.16600000    8.93100000   21.26500000
 C                  8.72900000    7.67100000   21.66000000
 O                  7.94800000    7.31800000   22.81100000
 H                  8.53316321    7.09485490   23.53859211
 H                  7.97780922   11.36016826   20.44865615
 H                  6.75569883   10.52170073   19.57634807
 H                  9.52410844    9.61340567   19.97062039
 H                  9.77034748    7.74993442   21.89294802
 H                  7.39400065    6.43475872   20.56885492
 H                  9.97521375    7.35198292   19.46015454
 H                  7.27407838    8.22940818   18.64255966
 H                  9.06507023    5.05835178   15.12492605
 H                  9.85606944    5.95512325   13.87258916
 H                  7.10065588    6.59256094   14.84697515
 H                  8.41941357    7.25126357   11.76658101
 H                  9.12436371    8.28549763   13.44697785
 H                  6.31290447    8.92543712   14.27491073
 H                  9.00972494    9.94084294   15.13220326
 H                  7.10708056    8.27196716   16.74054029

 1 2 1.0 41 1.0
 2 3 1.0 12 1.0 42 1.0
 3 4 1.0 6 1.0 43 1.0
 4 5 1.0
 5
 6 7 1.0 14 1.0 44 1.0
 7 8 1.0
 8
 9 10 1.0 12 1.0 38 1.0 39 1.0
 10 11 1.0
 11
 12 13 1.0 40 1.0
 13 14 1.0
 14 15 1.0 45 1.0
 15 16 1.0
 16 17 1.0 26 1.0 37 1.0
 17 18 1.0 20 1.0 36 1.0
 18 19 1.0
 19
 20 21 1.0 28 1.0 35 1.0
 21 22 1.0
 22
 23 24 1.0 26 1.0 31 1.0 32 1.0
 24 25 1.0
 25
 26 27 1.0 33 1.0
 27 28 1.0
 28 29 1.0 34 1.0
 29 30 1.0
 30
 31
 32
 33
 34
 35
 36
 37
 38
 39
 40
 41
 42
 43
 44
 45

