# freq=raman b3lyp/6-31+g(2d,p) geom=connectivity

423 6395/6395.com

0 1
O           7.66000         7.46900        12.31200
C           8.10900         7.97400        13.57700
C           7.33800         9.17600        14.09800
O           7.44900        10.22700        13.12700
H           7.52100         9.84000        12.20800
C           8.01100         9.64500        15.37700
O           7.35200        10.77000        15.97800
H           7.89600        10.99500        16.78600
C           8.90300         5.63300        14.23700
O           8.32600         4.76500        13.25100
H           8.67500         3.83800        13.38700
C           8.10900         6.87100        14.62200
O           8.72600         7.42200        15.79400
C           8.09200         8.54400        16.42300
O           8.91800         8.80100        17.56700
C           8.31800         8.39700        18.80700
C           8.94900         7.10200        19.28900
O           8.98800         6.06600        18.29700
H           9.04100         6.46200        17.38100
C           8.45100         6.58900        20.63100
O           9.05900         5.40400        21.16400
H           8.56900         5.15200        21.99900
C           7.80700        10.71800        19.61000
O           8.10900        11.49400        18.44100
H           7.92700        12.45500        18.64800
C           8.47700         9.39500        19.94300
O           8.16600         8.93100        21.26500
C           8.72900         7.67100        21.66000
O           7.94800         7.31800        22.81100

