# freq=raman b3lyp/6-31+g(2d,p) geom=connectivity

280 7782/7782.com

0 1
 O                  7.62400000    7.81500000   12.27000000
 C                  8.31300000    8.06300000   13.50400000
 C                  7.91500000    9.46500000   13.93700000
 O                  8.67500000   10.45100000   13.22200000
 H                  8.66900000   10.28000000   12.23700000
 C                  8.26900000    9.73800000   15.38900000
 O                  7.81900000   11.07200000   15.66600000
 H                  8.03100000   11.40000000   16.58600000
 C                  8.38100000    5.58200000   14.21000000
 O                  7.73700000    4.71500000   13.26400000
 H                  8.12900000    3.79700000   13.32000000
 C                  7.86400000    6.98600000   14.47900000
 O                  8.38100000    7.35200000   15.76700000
 C                  7.91000000    8.59000000   16.31900000
 O                  8.72000000    8.79900000   17.48400000
 C                  8.07800000    8.52000000   18.73700000
 C                  8.62800000    7.18700000   19.21600000
 O                  8.17100000    6.20100000   18.27800000
 H                  8.27500000    6.55900000   17.35100000
 C                  8.13600000    6.78200000   20.59600000
 O                  8.77700000    5.57200000   21.02800000
 H                  8.29200000    5.21900000   21.82800000
 C                  7.79200000   10.92400000   19.52200000
 O                  8.16500000   11.59100000   18.30800000
 H                  8.27500000   12.56600000   18.49900000
 C                  8.38500000    9.55400000   19.80800000
 O                  7.92700000    9.16000000   21.10900000
 C                  8.41300000    7.89800000   21.59000000
 O                  7.78700000    7.54400000   22.83200000
 H                  8.46188166    7.35685570   23.48859101
 H                  8.05545132   11.56582635   20.33658722
 H                  6.72706146   10.82010027   19.51872172
 H                  9.44829328    9.66340032   19.85636287
 H                  7.02000866    8.44642280   18.59508203
 H                  9.69754722    7.21776126   19.21125663
 H                  7.08006176    6.61526334   20.55024712
 H                  9.46948360    7.97033709   21.74332890
 H                  8.26427596    7.67406348   11.56872717
 H                  8.38551693    5.06811261   15.14850911
 H                  9.39920737    5.68127182   13.89647351
 H                  6.79488390    6.96790552   14.51853915
 H                  9.37094342    8.00839265   13.35342192
 H                  6.86825367    9.61874673   13.77704980
 H                  9.33725182    9.79138742   15.41879648
 H                  6.86580570    8.56309082   16.55102187

 1 2 1.0 38 1.0
 2 3 1.0 12 1.0 42 1.0
 3 4 1.0 6 1.0 43 1.0
 4 5 1.0
 5
 6 7 1.0 14 1.0 44 1.0
 7 8 1.0
 8
 9 10 1.0 12 1.0 39 1.0 40 1.0
 10 11 1.0
 11
 12 13 1.0 41 1.0
 13 14 1.0
 14 15 1.0 45 1.0
 15 16 1.0
 16 17 1.0 26 1.0 34 1.0
 17 18 1.0 20 1.0 35 1.0
 18 19 1.0
 19
 20 21 1.0 28 1.0 36 1.0
 21 22 1.0
 22
 23 24 1.0 26 1.0 31 1.0 32 1.0
 24 25 1.0
 25
 26 27 1.0 33 1.0
 27 28 1.0
 28 29 1.0 37 1.0
 29 30 1.0
 30
 31
 32
 33
 34
 35
 36
 37
 38
 39
 40
 41
 42
 43
 44
 45

