# freq=raman b3lyp/6-31+g(d,p) geom=connectivity

450 9000.com

0 1
 O                 10.69600000    7.94100000   21.84400000
 C                 11.46300000    7.87100000   23.05400000
 C                 12.10400000    9.20400000   23.40500000
 O                 12.96600000    9.62300000   22.33800000
 H                 12.61700000    9.40900000   21.42500000
 C                 12.60600000    9.32200000   24.83500000
 O                 12.82400000   10.73100000   25.00000000
 H                 13.34300000   11.18300000   24.27400000
 C                 10.38900000    5.94900000   23.75500000
 O                 10.04000000    4.92700000   24.69900000
 H                  9.81000000    4.13900000   24.12800000
 C                 10.60700000    7.38200000   24.21100000
 O                 11.30300000    7.44800000   25.46400000
 C                 11.73300000    8.73500000   25.93200000
 O                 12.47200000    8.59000000   27.15400000
 C                 11.51500000    8.71900000   28.21500000
 C                 10.80800000    7.45600000   28.68000000
 O                  9.85200000    7.04700000   27.69100000
 H                 10.34500000    7.00400000   26.82300000
 C                 10.14600000    7.49200000   30.04800000
 O                  9.35300000    6.35600000   30.42300000
 H                  8.61800000    6.22900000   29.75700000
 C                 12.56600000   10.64800000   28.95600000
 O                 13.26300000   11.54000000   29.83700000
 H                 13.55700000   12.43400000   29.50000000
 C                 12.29800000    9.22400000   29.41600000
 O                 11.71100000    9.20000000   30.72500000
 C                 11.11000000    7.96000000   31.12500000
 O                 10.52600000    8.38500000   32.36500000
 H                 11.22252748    8.59919824   32.98995487
 H                 11.28969942    7.98457019   21.09085816
 H                 11.28924199    5.63381873   23.27010297
 H                  9.61638797    5.96947412   23.01503280
 H                  9.68041371    7.91536405   24.25413505
 H                 12.24798245    7.15968657   22.90321616
 H                 11.29268370    9.90055924   23.36664523
 H                 13.55772228    8.83569696   24.88632313
 H                 10.88294101    9.36419013   26.09454074
 H                 11.62088049   11.09506068   28.72843496
 H                 13.12717361   10.59135854   28.04672781
 H                 13.22938418    8.69885995   29.45663777
 H                 10.78309915    9.44951839   27.94011086
 H                 11.55337827    6.68957881   28.72370125
 H                  9.43398686    8.28689513   29.97003191
 H                 11.86379158    7.22124801   31.30090833

 1 2 1.0 31 1.0
 2 3 1.0 12 1.0 35 1.0
 3 4 1.0 6 1.0 36 1.0
 4 5 1.0
 5
 6 7 1.0 14 1.0 37 1.0
 7 8 1.0
 8
 9 10 1.0 12 1.0 32 1.0 33 1.0
 10 11 1.0
 11
 12 13 1.0 34 1.0
 13 14 1.0
 14 15 1.0 38 1.0
 15 16 1.0
 16 17 1.0 26 1.0 42 1.0
 17 18 1.0 20 1.0 43 1.0
 18 19 1.0
 19
 20 21 1.0 28 1.0 44 1.0
 21 22 1.0
 22
 23 24 1.0 26 1.0 39 1.0 40 1.0
 24 25 1.0
 25
 26 27 1.0 41 1.0
 27 28 1.0
 28 29 1.0 45 1.0
 29 30 1.0
 30
 31
 32
 33
 34
 35
 36
 37
 38
 39
 40
 41
 42
 43
 44
 45

