# freq=raman b3lyp/6-31+g(2d,p) geom=connectivity

500 5928/5928.com

0 1
O           8.68900         7.34800        12.30200
C           9.34100         7.69700        13.53200
C           9.07600         9.12800        13.97100
O           9.85600         9.92900        13.07300
H           9.80400         9.61900        12.12400
C           9.49700         9.34700        15.41500
O           9.14000        10.68500        15.79300
H           9.31600        11.35800        15.07400
C           9.30700         5.32300        14.14200
O           8.62600         4.20800        14.73700
H           8.84600         3.32300        14.32700
C           8.96200         6.72000        14.63200
O           9.38200         6.99000        15.97800
C           9.02900         8.30800        16.42100
O          10.06100         8.30800        17.41800
C           9.59700         7.83800        18.69200
C           9.25100         6.39200        19.00900
O           8.66800         5.43800        18.10900
H           8.65100         5.83200        17.19000
C           8.65200         6.23700        20.39800
O           8.52100         4.84100        20.70400
H           7.98900         4.40200        19.97900
C          10.39800         9.92200        19.88200
O          10.91800        10.87400        20.82000
H          10.57100        11.73500        20.44800
C          10.51200         8.41100        19.76200
O          10.00000         8.18000        21.08300
C           9.59600         6.84600        21.42200
O           8.86700         6.96000        22.65300

