# freq=raman b3lyp/6-31+g(2d,p) geom=connectivity

280 5821/5821.com

0 1
 O                  7.74600000    7.59000000   12.34100000
 C                  8.27700000    7.87100000   13.64400000
 C                  7.74000000    9.22900000   14.06300000
 O                  8.22600000   10.19500000   13.11900000
 H                  7.93500000    9.91900000   12.20300000
 C                  8.06300000    9.60700000   15.50000000
 O                  7.24400000   10.67200000   16.00300000
 H                  7.53500000   10.93000000   16.92400000
 C                  8.48200000    5.48400000   14.35300000
 O                  8.28300000    4.63500000   13.21300000
 H                  8.47800000    3.67500000   13.41500000
 C                  7.81100000    6.81800000   14.63700000
 O                  8.30000000    7.11400000   15.95300000
 C                  7.89800000    8.40900000   16.42100000
 O                  8.74100000    8.68300000   17.54900000
 C                  8.01800000    8.30300000   18.72800000
 C                  8.62200000    7.01100000   19.25500000
 O                  8.40000000    5.89700000   18.37900000
 H                  8.44000000    6.26100000   17.44800000
 C                  8.27500000    6.64700000   20.68900000
 O                  9.02200000    5.64700000   21.39700000
 H                  8.46300000    5.42100000   22.19400000
 C                  7.64400000   10.72300000   19.44600000
 O                  8.23300000   11.36800000   18.30700000
 H                  8.09700000   12.35800000   18.27000000
 C                  8.33100000    9.39800000   19.73500000
 O                  7.82700000    9.04200000   21.03100000
 C                  8.42000000    7.86100000   21.59200000
 O                  7.56800000    7.61800000   22.72100000
 H                  8.10635971    7.45075316   23.49804396
 H                  8.46840963    7.45671815   11.72297066
 H                  8.25589509    4.87135499   15.20060997
 H                  9.53179676    5.69040864   14.36790736
 H                  6.74522513    6.72308929   14.63301505
 H                  9.34612959    7.89427780   13.60766717
 H                  6.67437008    9.19626930   13.97210675
 H                  9.08452169    9.92282840   15.54056915
 H                  6.88067209    8.35992024   16.74892545
 H                  7.73856816   11.36146584   20.29941563
 H                  6.60662255   10.54619151   19.25238497
 H                  9.38938161    9.54573047   19.78888949
 H                  6.96763420    8.21319591   18.54478722
 H                  9.67980454    7.17204599   19.25129162
 H                  7.24701947    6.35041595   20.70292618
 H                  9.43504110    8.02398188   21.88869592

 1 2 1.0 31 1.0
 2 3 1.0 12 1.0 35 1.0
 3 4 1.0 6 1.0 36 1.0
 4 5 1.0
 5
 6 7 1.0 14 1.0 37 1.0
 7 8 1.0
 8
 9 10 1.0 12 1.0 32 1.0 33 1.0
 10 11 1.0
 11
 12 13 1.0 34 1.0
 13 14 1.0
 14 15 1.0 38 1.0
 15 16 1.0
 16 17 1.0 26 1.0 42 1.0
 17 18 1.0 20 1.0 43 1.0
 18 19 1.0
 19
 20 21 1.0 28 1.0 44 1.0
 21 22 1.0
 22
 23 24 1.0 26 1.0 39 1.0 40 1.0
 24 25 1.0
 25
 26 27 1.0 41 1.0
 27 28 1.0
 28 29 1.0 45 1.0
 29 30 1.0
 30
 31
 32
 33
 34
 35
 36
 37
 38
 39
 40
 41
 42
 43
 44
 45

