# freq=raman b3lyp/6-31+g(2d,p) geom=connectivity

280 5821/5821.com

0 1
O           7.74600         7.59000        12.34100
C           8.27700         7.87100        13.64400
C           7.74000         9.22900        14.06300
O           8.22600        10.19500        13.11900
H           7.93500         9.91900        12.20300
C           8.06300         9.60700        15.50000
O           7.24400        10.67200        16.00300
H           7.53500        10.93000        16.92400
C           8.48200         5.48400        14.35300
O           8.28300         4.63500        13.21300
H           8.47800         3.67500        13.41500
C           7.81100         6.81800        14.63700
O           8.30000         7.11400        15.95300
C           7.89800         8.40900        16.42100
O           8.74100         8.68300        17.54900
C           8.01800         8.30300        18.72800
C           8.62200         7.01100        19.25500
O           8.40000         5.89700        18.37900
H           8.44000         6.26100        17.44800
C           8.27500         6.64700        20.68900
O           9.02200         5.64700        21.39700
H           8.46300         5.42100        22.19400
C           7.64400        10.72300        19.44600
O           8.23300        11.36800        18.30700
H           8.09700        12.35800        18.27000
C           8.33100         9.39800        19.73500
O           7.82700         9.04200        21.03100
C           8.42000         7.86100        21.59200
O           7.56800         7.61800        22.72100

