# freq=raman b3lyp/6-31+g(2d,p) geom=connectivity

423 7000/7000.com

0 1
O           7.48300         7.64900        12.44300
C           8.01400         8.00400        13.72700
C           7.47500         9.32000        14.26500
O           7.73000        10.32100        13.26900
H           7.79500        10.00900        12.32100
C           8.03400         9.61500        15.64700
O           7.36200        10.70000        16.30200
H           7.77600        10.84200        17.20100
C           8.18900         5.52600        14.38100
O           7.70100         4.82200        13.23000
H           7.82500         3.84500        13.40700
C           7.77200         6.93300        14.77800
O           8.43800         7.27600        16.00200
C           7.84300         8.44000        16.59300
O           8.67900         8.65700        17.73900
C           7.95700         8.39900        18.95200
C           8.44100         7.03200        19.40700
O           8.11300         5.94400        18.53000
H           8.43700         6.23000        17.62800
C           8.03100         6.65500        20.82200
O           8.82900         5.54100        21.24800
H           8.78000         5.36400        22.23100
C           8.27700        10.87300        19.71900
O           8.66500        11.59300        18.54000
H           8.57300        12.57200        18.72500
C           8.35700         9.38800        20.03400
O           7.64700         9.04400        21.23300
C           8.27900         7.85300        21.72400
O           7.55700         7.63800        22.94600

