# freq=raman b3lyp/6-31+g(d,p) geom=connectivity

550 10000.com

0 1
 O                  9.50100000    7.57200000   21.45100000
 C                 10.34100000    7.42700000   22.60500000
 C                 10.68100000    8.85600000   22.99800000
 O                 11.74600000    9.37300000   22.18700000
 H                 11.50700000    9.27300000   21.22100000
 C                 11.07000000    8.84500000   24.46700000
 O                 11.23300000   10.16000000   25.01700000
 H                 11.41700000   10.92600000   24.40000000
 C                  9.51600000    5.20000000   23.13800000
 O                  8.74100000    4.41300000   24.05400000
 H                  8.49200000    3.59000000   23.54300000
 C                  9.60400000    6.62400000   23.66400000
 O                 10.16000000    6.65400000   24.98700000
 C                 10.25700000    8.01100000   25.44400000
 O                 10.93600000    7.76000000   26.68300000
 C                 10.22600000    7.82300000   27.92900000
 C                  9.69700000    6.44300000   28.28400000
 O                  8.77700000    5.72000000   27.45400000
 H                  9.21100000    5.39000000   26.61500000
 C                  9.15600000    6.34600000   29.70200000
 O                  8.92400000    4.96700000   30.02300000
 H                  8.22200000    4.73000000   29.35200000
 C                 12.24500000    9.14400000   28.59700000
 O                 11.81600000   10.51100000   28.50700000
 H                 11.44900000   10.75700000   27.61000000
 C                 11.23700000    8.09300000   29.03200000
 O                 10.70000000    8.14200000   30.36200000
 C                 10.17400000    6.85300000   30.71000000
 O                  9.44000000    6.94400000   31.94000000
 H                 10.05413185    6.99844109   32.67585205
 H                 10.97148909    6.14688034   30.81151934
 H                  8.24551094    6.90151082   29.78754186
 H                 10.57504032    5.83150486   28.28834702
 H                  9.44803362    8.55743423   27.91242667
 H                 11.82133637    7.19684023   29.05067270
 H                 12.61328568    8.85794200   27.63396497
 H                 13.06447745    9.10817701   29.28407600
 H                 10.04738514    7.67040717   20.66781464
 H                 10.49962791    4.78733235   23.05384807
 H                  9.04407929    5.20091801   22.17769276
 H                  8.60779752    7.00955314   23.72588208
 H                 11.23740658    6.91195163   22.32917320
 H                  9.81409951    9.46999937   22.86998314
 H                 12.04790475    8.41105411   24.48412503
 H                  9.28818664    8.43361951   25.61041340

 1 2 1.0 38 1.0
 2 3 1.0 12 1.0 42 1.0
 3 4 1.0 6 1.0 43 1.0
 4 5 1.0
 5
 6 7 1.0 14 1.0 44 1.0
 7 8 1.0
 8
 9 10 1.0 12 1.0 39 1.0 40 1.0
 10 11 1.0
 11
 12 13 1.0 41 1.0
 13 14 1.0
 14 15 1.0 45 1.0
 15 16 1.0
 16 17 1.0 26 1.0 34 1.0
 17 18 1.0 20 1.0 33 1.0
 18 19 1.0
 19
 20 21 1.0 28 1.0 32 1.0
 21 22 1.0
 22
 23 24 1.0 26 1.0 36 1.0 37 1.0
 24 25 1.0
 25
 26 27 1.0 35 1.0
 27 28 1.0
 28 29 1.0 31 1.0
 29 30 1.0
 30
 31
 32
 33
 34
 35
 36
 37
 38
 39
 40
 41
 42
 43
 44
 45

