# freq=raman b3lyp/6-31+g(2d,p) geom=connectivity

423 10000/10000.com

0 1
 O                  7.54900000    7.44000000   12.45500000
 C                  8.04000000    7.90200000   13.72200000
 C                  7.49000000    9.21000000   14.26700000
 O                  7.69400000   10.28800000   13.34100000
 H                  7.50500000    9.88100000   12.44800000
 C                  8.08300000    9.57000000   15.61900000
 O                  7.45300000   10.66500000   16.30000000
 H                  8.00900000   10.84800000   17.11100000
 C                  8.27600000    5.44000000   14.51700000
 O                  8.11000000    4.71300000   13.29100000
 H                  8.21400000    3.74000000   13.49700000
 C                  7.73400000    6.83800000   14.76300000
 O                  8.44700000    7.16600000   15.96400000
 C                  7.95700000    8.37900000   16.55400000
 O                  8.76400000    8.71000000   17.69400000
 C                  8.14300000    8.37400000   18.94300000
 C                  8.65900000    7.02500000   19.41800000
 O                  8.36800000    5.96300000   18.49800000
 H                  8.55000000    6.25100000   17.55800000
 C                  8.11800000    6.70900000   20.80300000
 O                  8.73600000    5.54200000   21.36600000
 H                  8.42700000    5.45700000   22.31300000
 C                  8.08400000   10.77900000   19.68800000
 O                  8.72300000   11.49300000   18.62000000
 H                  8.74500000   12.45500000   18.89200000
 C                  8.53200000    9.36700000   20.02600000
 O                  7.84600000    8.99700000   21.23100000
 C                  8.38200000    7.80400000   21.82300000
 O                  7.59400000    7.65900000   23.01300000
 H                  8.17456106    7.56652355   23.77194464
 H                  8.29000699    7.23091365   11.88159652
 H                  7.86579300    4.82160420   15.28785463
 H                  9.33043055    5.49455439   14.69049360
 H                  6.68249770    6.79915205   14.95725178
 H                  9.10306661    7.99789197   13.64720619
 H                  6.43491051    9.08866971   14.39725029
 H                  9.12037212    9.79763843   15.48884687
 H                  6.93697009    8.25480442   16.85235289
 H                  8.19559092   11.36781611   20.57442149
 H                  7.03971427   10.73411906   19.45919220
 H                  9.59007639    9.34430531   20.18366833
 H                  7.07914878    8.34497951   18.83219208
 H                  9.72354939    7.09818425   19.49723799
 H                  7.06288557    6.54499611   20.73417953
 H                  9.42429396    7.90525230   22.04270724

 1 2 1.0 31 1.0
 2 3 1.0 12 1.0 35 1.0
 3 4 1.0 6 1.0 36 1.0
 4 5 1.0
 5
 6 7 1.0 14 1.0 37 1.0
 7 8 1.0
 8
 9 10 1.0 12 1.0 32 1.0 33 1.0
 10 11 1.0
 11
 12 13 1.0 34 1.0
 13 14 1.0
 14 15 1.0 38 1.0
 15 16 1.0
 16 17 1.0 26 1.0 42 1.0
 17 18 1.0 20 1.0 43 1.0
 18 19 1.0
 19
 20 21 1.0 28 1.0 44 1.0
 21 22 1.0
 22
 23 24 1.0 26 1.0 39 1.0 40 1.0
 24 25 1.0
 25
 26 27 1.0 41 1.0
 27 28 1.0
 28 29 1.0 45 1.0
 29 30 1.0
 30
 31
 32
 33
 34
 35
 36
 37
 38
 39
 40
 41
 42
 43
 44
 45

