# freq=raman b3lyp/6-31+g(2d,p) geom=connectivity

423 10000/10000.com

0 1
O           7.54900         7.44000        12.45500
C           8.04000         7.90200        13.72200
C           7.49000         9.21000        14.26700
O           7.69400        10.28800        13.34100
H           7.50500         9.88100        12.44800
C           8.08300         9.57000        15.61900
O           7.45300        10.66500        16.30000
H           8.00900        10.84800        17.11100
C           8.27600         5.44000        14.51700
O           8.11000         4.71300        13.29100
H           8.21400         3.74000        13.49700
C           7.73400         6.83800        14.76300
O           8.44700         7.16600        15.96400
C           7.95700         8.37900        16.55400
O           8.76400         8.71000        17.69400
C           8.14300         8.37400        18.94300
C           8.65900         7.02500        19.41800
O           8.36800         5.96300        18.49800
H           8.55000         6.25100        17.55800
C           8.11800         6.70900        20.80300
O           8.73600         5.54200        21.36600
H           8.42700         5.45700        22.31300
C           8.08400        10.77900        19.68800
O           8.72300        11.49300        18.62000
H           8.74500        12.45500        18.89200
C           8.53200         9.36700        20.02600
O           7.84600         8.99700        21.23100
C           8.38200         7.80400        21.82300
O           7.59400         7.65900        23.01300

