# freq=raman b3lyp/6-31+g(2d,p) geom=connectivity

423 10000.com

0 1
C           8.32000         8.06600        24.18100
C           7.74200         9.38000        24.68200
O           7.98200        10.37400        23.67500
H           7.73500         9.90900        22.82500
C           8.38700         9.80500        25.99100
O           7.72300        10.98600        26.46100
H           7.99900        11.21500        27.39500
C           8.56300         5.56000        25.05000
O           7.90300         4.87100        23.97900
H           8.01500         3.87900        24.05000
C           8.17200         7.01300        25.26700
O           8.74100         7.42700        26.51700
C           8.17700         8.66500        26.97500
O           8.89500         8.82200        28.20800
C           8.30300         8.43700        29.45800
C           8.73400         7.08100        29.99200
O           8.52200         6.00700        29.06500
H           8.77200         6.38200        28.17300
C           8.16500         6.72400        31.35600
O           8.74700         5.56600        31.97200
H           8.32200         5.30800        32.84000
C           7.94600        10.86600        30.19500
O           8.46700        11.53000        29.03400
H           8.34600        12.51800        29.12500
C           8.51300         9.49600        30.52800
O           7.79700         9.10700        31.71000
C           8.31700         7.90600        32.29900
O           7.41800         7.64800        33.38700
C           8.09900         7.99800        34.60100

