# freq=raman b3lyp/6-31+g(2df,p) geom=connectivity

280 7000.com

0 1
 O                  7.44675458    7.83893548   12.11932339
 C                  8.17900000    8.16700000   13.30300000
 C                  7.63000000    9.43500000   13.93700000
 O                  7.83600000   10.42600000   12.91900000
 H                  7.39700000   10.07000000   12.09400000
 C                  8.15800000    9.82800000   15.30700000
 O                  7.32200000   10.85100000   15.86600000
 H                  7.49000000   10.85100000   16.85200000
 C                  8.60900000    5.76800000   14.06700000
 O                  8.09000000    4.86200000   13.08200000
 H                  8.24800000    3.91100000   13.34800000
 C                  7.96500000    7.11000000   14.37400000
 O                  8.43100000    7.44300000   15.69000000
 C                  7.95100000    8.66700000   16.26600000
 O                  8.56900000    8.89100000   17.54100000
 C                  7.90800000    8.35200000   18.69500000
 C                  8.53500000    7.00700000   19.02400000
 O                  8.23500000    5.95000000   18.10100000
 H                  8.39900000    6.28800000   17.17500000
 C                  8.10900000    6.73100000   20.45700000
 O                  8.77700000    5.54400000   20.90800000
 H                  8.59200000    5.35200000   21.87200000
 C                  7.33300000   10.75200000   19.47200000
 O                  7.75900000   11.39900000   18.26300000
 H                  7.48100000   12.33800000   18.46700000
 C                  8.07000000    9.44900000   19.73400000
 O                  7.68700000    9.06500000   21.06300000
 C                  8.36100000    7.85700000   21.44600000
 O                  7.68900000    7.58600000   22.68400000
 H                  8.33872411    7.43487554   23.37437669
 H                  9.40698035    8.02365683   21.59782430
 H                  7.05749433    6.53300430   20.45121032
 H                  9.59694470    7.13804407   19.02304447
 H                  6.86872915    8.21687032   18.47923144
 H                  9.11309950    9.68509122   19.76723215
 H                  7.50128587   11.41459541   20.29513254
 H                  6.28509294   10.54719004   19.40240346
 H                  6.89857442    8.56144032   16.42773294
 H                  9.18333176   10.13143160   15.26796108
 H                  6.57322493    9.30241746   14.03970499
 H                  9.22083544    8.27605426   13.08485764
 H                  6.90988167    6.94663233   14.44425887
 H                  8.06032812    7.64173659   11.40781786
 H                  8.64084143    5.22782225   14.99008945
 H                  9.62128916    5.97337559   13.78773037

 1 2 1.0 43 1.0
 2 3 1.0 12 1.0 41 1.0
 3 4 1.0 6 1.0 40 1.0
 4 5 1.0
 5
 6 7 1.0 14 1.0 39 1.0
 7 8 1.0
 8
 9 10 1.0 12 1.0 44 1.0 45 1.0
 10 11 1.0
 11
 12 13 1.0 42 1.0
 13 14 1.0
 14 15 1.0 38 1.0
 15 16 1.0
 16 17 1.0 26 1.0 34 1.0
 17 18 1.0 20 1.0 33 1.0
 18 19 1.0
 19
 20 21 1.0 28 1.0 32 1.0
 21 22 1.0
 22
 23 24 1.0 26 1.0 36 1.0 37 1.0
 24 25 1.0
 25
 26 27 1.0 35 1.0
 27 28 1.0
 28 29 1.0 31 1.0
 29 30 1.0
 30
 31
 32
 33
 34
 35
 36
 37
 38
 39
 40
 41
 42
 43
 44
 45

