# freq=raman b3lyp/6-31+g(d,p) geom=connectivity

550 10000.com

0 1
O           9.50100         7.57200        21.45100
C          10.34100         7.42700        22.60500
C          10.68100         8.85600        22.99800
O          11.74600         9.37300        22.18700
H          11.50700         9.27300        21.22100
C          11.07000         8.84500        24.46700
O          11.23300        10.16000        25.01700
H          11.41700        10.92600        24.40000
C           9.51600         5.20000        23.13800
O           8.74100         4.41300        24.05400
H           8.49200         3.59000        23.54300
C           9.60400         6.62400        23.66400
O          10.16000         6.65400        24.98700
C          10.25700         8.01100        25.44400
O          10.93600         7.76000        26.68300
C          10.22600         7.82300        27.92900
C           9.69700         6.44300        28.28400
O           8.77700         5.72000        27.45400
H           9.21100         5.39000        26.61500
C           9.15600         6.34600        29.70200
O           8.92400         4.96700        30.02300
H           8.22200         4.73000        29.35200
C          12.24500         9.14400        28.59700
O          11.81600        10.51100        28.50700
H          11.44900        10.75700        27.61000
C          11.23700         8.09300        29.03200
O          10.70000         8.14200        30.36200
C          10.17400         6.85300        30.71000
O           9.44000         6.94400        31.94000

