# freq=raman b3lyp/6-31+g(2d,p) geom=connectivity

483 7631/7631.com

0 1
 O                  7.53000000    7.51300000   12.02200000
 C                  8.06000000    7.91800000   13.29200000
 C                  7.36900000    9.15500000   13.84200000
 O                  7.16600000   10.19400000   12.87300000
 H                  7.08600000    9.80200000   11.95700000
 C                  8.03800000    9.56900000   15.14300000
 O                  7.38700000   10.71600000   15.70800000
 H                  7.87300000   11.10400000   16.49100000
 C                  8.27300000    5.46600000   14.04800000
 O                  7.76400000    4.83300000   12.86500000
 H                  8.00400000    3.86400000   12.91400000
 C                  7.78600000    6.87200000   14.36100000
 O                  8.31800000    7.22500000   15.64600000
 C                  7.85800000    8.47400000   16.18100000
 O                  8.65300000    8.69400000   17.35500000
 C                  8.12200000    8.52200000   18.67700000
 C                  8.67200000    7.24200000   19.28500000
 O                  8.38200000    6.15400000   18.39600000
 H                  8.65400000    6.48600000   17.49300000
 C                  8.08500000    6.92500000   20.65100000
 O                  8.69100000    5.81300000   21.32600000
 H                  8.03900000    5.57500000   22.04700000
 C                  7.73000000   10.85700000   19.19400000
 O                  8.37200000   11.59200000   18.14200000
 H                  8.20700000   12.54900000   18.38200000
 C                  8.47000000    9.61800000   19.67100000
 O                  7.84300000    9.38600000   20.94000000
 C                  8.22100000    8.14300000   21.55000000
 O                  7.45500000    7.82200000   22.72000000
 H                  8.04948434    7.62256288   23.44692035
 H                  9.24752999    8.22270325   21.84117618
 H                  7.04349784    6.71367928   20.52643352
 H                  9.73365003    7.33529394   19.38037007
 H                  7.05695228    8.44275836   18.61147052
 H                  9.52409956    9.78081222   19.75624259
 H                  7.60164735   11.51250054   20.02990947
 H                  6.76225224   10.55692530   18.85002406
 H                  8.02737464    4.84280499   14.88238370
 H                  9.33923823    5.50129171   13.96559531
 H                  6.72299620    6.81491755   14.46900241
 H                  8.25282840    7.32105724   11.42010542
 H                  9.11269806    8.09200194   13.21168735
 H                  6.38630232    8.83407988   14.11807163
 H                  9.07735808    9.76791142   14.98466797
 H                  6.82562392    8.39505462   16.45093936

 1 2 1.0 41 1.0
 2 3 1.0 12 1.0 42 1.0
 3 4 1.0 6 1.0 43 1.0
 4 5 1.0
 5
 6 7 1.0 14 1.0 44 1.0
 7 8 1.0
 8
 9 10 1.0 12 1.0 38 1.0 39 1.0
 10 11 1.0
 11
 12 13 1.0 40 1.0
 13 14 1.0
 14 15 1.0 45 1.0
 15 16 1.0
 16 17 1.0 26 1.0 34 1.0
 17 18 1.0 20 1.0 33 1.0
 18 19 1.0
 19
 20 21 1.0 28 1.0 32 1.0
 21 22 1.0
 22
 23 24 1.0 26 1.0 36 1.0 37 1.0
 24 25 1.0
 25
 26 27 1.0 35 1.0
 27 28 1.0
 28 29 1.0 31 1.0
 29 30 1.0
 30
 31
 32
 33
 34
 35
 36
 37
 38
 39
 40
 41
 42
 43
 44
 45

