# freq=raman b3lyp/6-31+g(2d,p) geom=connectivity

483 7631/7631.com

0 1
O           7.53000         7.51300        12.02200
C           8.06000         7.91800        13.29200
C           7.36900         9.15500        13.84200
O           7.16600        10.19400        12.87300
H           7.08600         9.80200        11.95700
C           8.03800         9.56900        15.14300
O           7.38700        10.71600        15.70800
H           7.87300        11.10400        16.49100
C           8.27300         5.46600        14.04800
O           7.76400         4.83300        12.86500
H           8.00400         3.86400        12.91400
C           7.78600         6.87200        14.36100
O           8.31800         7.22500        15.64600
C           7.85800         8.47400        16.18100
O           8.65300         8.69400        17.35500
C           8.12200         8.52200        18.67700
C           8.67200         7.24200        19.28500
O           8.38200         6.15400        18.39600
H           8.65400         6.48600        17.49300
C           8.08500         6.92500        20.65100
O           8.69100         5.81300        21.32600
H           8.03900         5.57500        22.04700
C           7.73000        10.85700        19.19400
O           8.37200        11.59200        18.14200
H           8.20700        12.54900        18.38200
C           8.47000         9.61800        19.67100
O           7.84300         9.38600        20.94000
C           8.22100         8.14300        21.55000
O           7.45500         7.82200        22.72000

