# freq=raman b3lyp/6-31+g(2d,p) geom=connectivity

400 5361/5361.com

0 1
O           8.93900         7.53900        12.51900
C           9.54900         7.72700        13.80400
C           9.37300         9.19200        14.16800
O          10.22600        10.00300        13.34800
H          10.20400         9.74900        12.38100
C           9.68600         9.45900        15.63200
O           9.37700        10.78900        16.07300
H           9.38000        10.74300        17.07200
C           9.11400         5.39500        14.51000
O           8.39800         4.86200        13.38700
H           8.14400         3.89900        13.48500
C           8.75100         6.85000        14.75600
O           9.16500         7.12000        16.10300
C           9.00500         8.47000        16.56400
O           9.83900         8.62700        17.72100
C           9.14100         8.49100        18.96700
C           9.44800         7.10200        19.50300
O           8.98100         6.07200        18.61900
H           9.37700         6.21900        17.71300
C           8.88700         6.85500        20.89400
O           9.09000         5.56600        21.49000
H           8.47000         5.52600        22.27400
C           9.08300        10.79900        19.78600
O           9.62800        11.37700        18.59000
H           9.58400        12.37600        18.60800
C           9.59200         9.40100        20.09800
O           8.99900         9.17400        21.38500
C           9.43700         7.89200        21.85900
O           8.49700         7.91300        22.94400

