# freq=raman b3lyp/6-31+g(2d,p) geom=connectivity

400 5361/5361.com

0 1
 O                  8.93900000    7.53900000   12.51900000
 C                  9.54900000    7.72700000   13.80400000
 C                  9.37300000    9.19200000   14.16800000
 O                 10.22600000   10.00300000   13.34800000
 H                 10.20400000    9.74900000   12.38100000
 C                  9.68600000    9.45900000   15.63200000
 O                  9.37700000   10.78900000   16.07300000
 H                  9.38000000   10.74300000   17.07200000
 C                  9.11400000    5.39500000   14.51000000
 O                  8.39800000    4.86200000   13.38700000
 H                  8.14400000    3.89900000   13.48500000
 C                  8.75100000    6.85000000   14.75600000
 O                  9.16500000    7.12000000   16.10300000
 C                  9.00500000    8.47000000   16.56400000
 O                  9.83900000    8.62700000   17.72100000
 C                  9.14100000    8.49100000   18.96700000
 C                  9.44800000    7.10200000   19.50300000
 O                  8.98100000    6.07200000   18.61900000
 H                  9.37700000    6.21900000   17.71300000
 C                  8.88700000    6.85500000   20.89400000
 O                  9.09000000    5.56600000   21.49000000
 H                  8.47000000    5.52600000   22.27400000
 C                  9.08300000   10.79900000   19.78600000
 O                  9.62800000   11.37700000   18.59000000
 H                  9.58400000   12.37600000   18.60800000
 C                  9.59200000    9.40100000   20.09800000
 O                  8.99900000    9.17400000   21.38500000
 C                  9.43700000    7.89200000   21.85900000
 O                  8.49700000    7.91300000   22.94400000
 H                  8.97161769    7.92914798   23.77831247
 H                  9.62217983    7.44136687   11.85166718
 H                 10.16478880    5.32338238   14.32128377
 H                  8.87479229    4.82227973   15.38159117
 H                  7.69955795    7.00925007   14.63764029
 H                 10.58203312    7.44857437   13.78910927
 H                  8.35658298    9.46929231   13.98117010
 H                 10.74101879    9.32744090   15.75253033
 H                  7.98436936    8.72493474   16.75950287
 H                  9.32251958   11.43801690   20.61012849
 H                  8.01842837   10.75714908   19.68682472
 H                 10.65930411    9.40307802   20.17387892
 H                  8.08784962    8.59678012   18.81020446
 H                 10.51236033    7.01240226   19.56631932
 H                  7.82964390    7.00769329   20.83414323
 H                 10.46844525    7.81401755   22.13275068

 1 2 1.0 31 1.0
 2 3 1.0 12 1.0 35 1.0
 3 4 1.0 6 1.0 36 1.0
 4 5 1.0
 5
 6 7 1.0 14 1.0 37 1.0
 7 8 1.0
 8
 9 10 1.0 12 1.0 32 1.0 33 1.0
 10 11 1.0
 11
 12 13 1.0 34 1.0
 13 14 1.0
 14 15 1.0 38 1.0
 15 16 1.0
 16 17 1.0 26 1.0 42 1.0
 17 18 1.0 20 1.0 43 1.0
 18 19 1.0
 19
 20 21 1.0 28 1.0 44 1.0
 21 22 1.0
 22
 23 24 1.0 26 1.0 39 1.0 40 1.0
 24 25 1.0
 25
 26 27 1.0 41 1.0
 27 28 1.0
 28 29 1.0 45 1.0
 29 30 1.0
 30
 31
 32
 33
 34
 35
 36
 37
 38
 39
 40
 41
 42
 43
 44
 45

