# freq=raman b3lyp/6-31+g(2d,p) geom=connectivity

550 8170/8170.com

0 1
 O                  8.70500000    7.27900000   11.40300000
 C                  9.47900000    7.22400000   12.61000000
 C                  9.60600000    8.64400000   13.13500000
 O                 10.13800000    9.70000000   12.32100000
 H                  9.82600000    9.52000000   11.38800000
 C                 10.46800000    8.47100000   14.37500000
 O                 10.65600000    9.75200000   14.99500000
 H                 11.16400000   10.50400000   14.57500000
 C                  8.54800000    4.91800000   13.10500000
 O                  7.47300000    4.20800000   13.73800000
 H                  7.39200000    3.24500000   13.47900000
 C                  8.90900000    6.28600000   13.66200000
 O                  9.72300000    6.27600000   14.84400000
 C                  9.79900000    7.58900000   15.41700000
 O                 10.63400000    7.52300000   16.58200000
 C                  9.95100000    7.76600000   17.82000000
 C                  9.66000000    6.48300000   18.58300000
 O                  9.22600000    5.38500000   17.76900000
 H                  8.99400000    5.66900000   16.83900000
 C                  8.86900000    6.53100000   19.88000000
 O                  8.49400000    5.24500000   20.39600000
 H                  7.58300000    4.97600000   20.08500000
 C                 11.20500000    9.72300000   18.32800000
 O                 11.61100000   10.64700000   19.34800000
 H                 12.41800000   10.45600000   19.90600000
 C                 10.73100000    8.41900000   18.94900000
 O                 10.02700000    8.60300000   20.18600000
 C                  9.70800000    7.36300000   20.83600000
 O                  9.25900000    7.68000000   22.16200000
 H                 10.01857874    7.81649915   22.73297121
 H                 10.63058235    6.83428385   20.95516814
 H                  7.96669281    7.07290887   19.68744741
 H                 10.63296414    6.17869675   18.90802357
 H                  9.04197536    8.30177788   17.64247179
 H                 11.59131595    7.81493634   19.14865863
 H                 12.03378170    9.52504926   17.68082429
 H                 10.40759587   10.15336068   17.75893380
 H                  9.29452040    7.31348941   10.64611416
 H                  9.42179199    4.30274487   13.15837308
 H                  8.29426593    5.04222356   12.07296922
 H                  7.97941385    6.72322892   13.96133336
 H                 10.45898381    6.87666014   12.35724170
 H                  8.63325009    8.95259424   13.45660099
 H                 11.41637352    8.05665065   14.10333424
 H                  8.82479158    7.95699044   15.66276612

 1 2 1.0 38 1.0
 2 3 1.0 12 1.0 42 1.0
 3 4 1.0 6 1.0 43 1.0
 4 5 1.0
 5
 6 7 1.0 14 1.0 44 1.0
 7 8 1.0
 8
 9 10 1.0 12 1.0 39 1.0 40 1.0
 10 11 1.0
 11
 12 13 1.0 41 1.0
 13 14 1.0
 14 15 1.0 45 1.0
 15 16 1.0
 16 17 1.0 26 1.0 34 1.0
 17 18 1.0 20 1.0 33 1.0
 18 19 1.0
 19
 20 21 1.0 28 1.0 32 1.0
 21 22 1.0
 22
 23 24 1.0 26 1.0 36 1.0 37 1.0
 24 25 1.0
 25
 26 27 1.0 35 1.0
 27 28 1.0
 28 29 1.0 31 1.0
 29 30 1.0
 30
 31
 32
 33
 34
 35
 36
 37
 38
 39
 40
 41
 42
 43
 44
 45

