# freq=raman b3lyp/6-31+g(2d,p) geom=connectivity

550 8170/8170.com

0 1
O           8.70500         7.27900        11.40300
C           9.47900         7.22400        12.61000
C           9.60600         8.64400        13.13500
O          10.13800         9.70000        12.32100
H           9.82600         9.52000        11.38800
C          10.46800         8.47100        14.37500
O          10.65600         9.75200        14.99500
H          11.16400        10.50400        14.57500
C           8.54800         4.91800        13.10500
O           7.47300         4.20800        13.73800
H           7.39200         3.24500        13.47900
C           8.90900         6.28600        13.66200
O           9.72300         6.27600        14.84400
C           9.79900         7.58900        15.41700
O          10.63400         7.52300        16.58200
C           9.95100         7.76600        17.82000
C           9.66000         6.48300        18.58300
O           9.22600         5.38500        17.76900
H           8.99400         5.66900        16.83900
C           8.86900         6.53100        19.88000
O           8.49400         5.24500        20.39600
H           7.58300         4.97600        20.08500
C          11.20500         9.72300        18.32800
O          11.61100        10.64700        19.34800
H          12.41800        10.45600        19.90600
C          10.73100         8.41900        18.94900
O          10.02700         8.60300        20.18600
C           9.70800         7.36300        20.83600
O           9.25900         7.68000        22.16200

