# freq=raman b3lyp/6-31+g(2d,p) geom=connectivity

493 6595/6595.com

0 1
O           7.64400         7.47000        12.55500
C           8.28200         7.86200        13.77900
C           7.88200         9.25000        14.25500
O           8.29900        10.21000        13.27400
H           7.94600         9.87900        12.39900
C           8.43800         9.62100        15.62100
O           7.81400        10.81200        16.12200
H           8.35200        11.12000        16.90600
C           8.42400         5.42500        14.50500
O           7.68200         4.72500        13.49600
H           7.81000         3.74100        13.62000
C           7.98100         6.83600        14.85900
O           8.65900         7.20700        16.06800
C           8.27000         8.47800        16.60900
O           9.16300         8.68600        17.71300
C           8.47400         8.24400        18.89100
C           9.05800         6.98900        19.52100
O           9.06500         5.91900        18.56600
H           9.37400         6.26800        17.68100
C           8.39800         6.59800        20.83300
O           9.04400         5.53100        21.54300
H           8.50300         5.52300        22.38400
C           8.12400        10.70900        19.67800
O           8.77200        11.40300        18.60200
H           8.54200        12.33800        18.87100
C           8.55200         9.28600        19.99500
O           7.84500         8.94900        21.19600
C           8.44900         7.78600        21.78000
O           7.59400         7.50700        22.89900

